geometry optimzed in LAMMPS
_audit_creation_date              2020-11-30 
_audit_creation_method            'lammps2cif' 
_symmetry_space_group_name_H-M    'P1' 
_symmetry_Int_Tables_number       1 
_symmetry_cell_setting            triclinic 
loop_ 
_symmetry_equiv_pos_as_xyz 
  x,y,z 
_cell_length_a                    90.33447048 
_cell_length_b                    90.14579665708447 
_cell_length_c                    90.37881906380272 
_cell_angle_alpha                 89.88605125546094 
_cell_angle_beta                  90.08130160094431 
_cell_angle_gamma                 89.96875129184696 
loop_ 
_atom_site_label 
_atom_site_type_symbol 
_atom_site_fract_x 
_atom_site_fract_y 
_atom_site_fract_z 
_atom_site_charge 
N1          N  0.21835330  0.99777675  0.62373460    -0.27100
N2          N  0.20439003  0.00207466  0.62286252    -0.34900
C3          C  0.19563930  0.99009650  0.62147056     0.01300
C4          C  0.20438972  0.97743291  0.62142966     0.07300
C5          C  0.21879116  0.98282463  0.62294298    -0.05800
H6          H  0.18374274  0.99070433  0.62033326     0.08000
H7          H  0.22891427  0.97642271  0.62304886     0.09200
Cu8        Cu  0.19760479  0.02406666  0.62277788     0.44200
Cu9        Cu  0.23602160  0.01291661  0.62502140     0.42000
Cu10       Cu  0.22570927  0.05215474  0.62089114     0.43900
N11         N  0.19290750  0.04658995  0.62211718    -0.34400
N12         N  0.20318455  0.05695662  0.62117530    -0.28700
C13         C  0.19659218  0.07035702  0.62114264    -0.04800
C14         C  0.18136062  0.06837025  0.62215167     0.07400
C15         C  0.17951942  0.05308329  0.62272949     0.01200
H16         H  0.20254182  0.08075226  0.62073067     0.08900
H17         H  0.16923116  0.04702066  0.62354782     0.07900
N18         N  0.24738046  0.04471300  0.62336010    -0.35900
N19         N  0.25116972  0.03064195  0.62514546    -0.28100
C20         C  0.26592000  0.02993702  0.62734366    -0.03300
C21         C  0.27176353  0.04423808  0.62695781     0.05300
C22         C  0.25956635  0.05325411  0.62435869     0.03400
H23         H  0.27184833  0.01972922  0.62945653     0.08500
H24         H  0.25942249  0.06521724  0.62351894     0.07300
N25         N  0.10414620  0.14890475  0.62557918    -0.03200
C26         C  0.10308584  0.16037596  0.61573682    -0.00600
C27         C  0.09221808  0.17019436  0.62010510    -0.23500
C28         C  0.08619593  0.16462755  0.63284676    -0.23700
C29         C  0.09358073  0.15155625  0.63606887    -0.00700
H30         H  0.08869200  0.18012031  0.61433260     0.13000
H31         H  0.07729069  0.16960246  0.63911938     0.13100
N32         N  0.21898553  0.97855297  0.87262530    -0.27100
N33         N  0.20475317  0.97514963  0.87273401    -0.34900
C34         C  0.19677652  0.98761270  0.87461727     0.01300
C35         C  0.20638051  0.99957159  0.87581893     0.07300
C36         C  0.22040098  0.99330933  0.87443938    -0.05800
H37         H  0.18485039  0.98778321  0.87557046     0.08000
H38         H  0.23094265  0.99894823  0.87503800     0.09200
Cu39       Cu  0.19663586  0.95362578  0.87146103     0.44200
Cu40       Cu  0.23595123  0.96284575  0.87101670     0.42000
Cu41       Cu  0.22421190  0.92454435  0.87031841     0.43900
N42         N  0.19144766  0.93117466  0.87113422    -0.34400
N43         N  0.20157228  0.92060929  0.87076550    -0.28700
C44         C  0.19480266  0.90734227  0.87088754    -0.04800
C45         C  0.17958720  0.90954933  0.87138047     0.07400
C46         C  0.17793730  0.92488809  0.87151891     0.01200
H47         H  0.20066644  0.89689424  0.87072108     0.08900
H48         H  0.16772193  0.93111747  0.87199255     0.07900
N49         N  0.24627240  0.93095429  0.86955903    -0.35900
N50         N  0.25062336  0.94494193  0.86978751    -0.28100
C51         C  0.26548025  0.94534442  0.86864085    -0.03300
C52         C  0.27082051  0.93089160  0.86758657     0.05300
C53         C  0.25820714  0.92210872  0.86824604     0.03400
H54         H  0.27182779  0.95549679  0.86819384     0.08500
H55         H  0.25762778  0.91015021  0.86758884     0.07300
N56         N  0.09846667  0.83350253  0.87705932    -0.03200
C57         C  0.08705229  0.83275136  0.86730602    -0.00600
C58         C  0.07747261  0.82147117  0.87119618    -0.23500
C59         C  0.08326704  0.81491881  0.88366551    -0.23700
C60         C  0.09613908  0.82248742  0.88707057    -0.00700
H61         H  0.06758640  0.81808580  0.86533219     0.13000
H62         H  0.07853633  0.80568735  0.88969612     0.13100
N63         N  0.14055331  0.74715315  0.04179596    -0.27100
N64         N  0.14121288  0.75150676  0.05573674    -0.34900
C65         C  0.14316410  0.73962271  0.06451232     0.01300
C66         C  0.14379309  0.72700890  0.05578357     0.07300
C67         C  0.14208131  0.73227205  0.04138443    -0.05800
H68         H  0.14399705  0.74023087  0.07642809     0.08000
H69         H  0.14209520  0.72582265  0.03130860     0.09200
Cu70       Cu  0.13971550  0.77336106  0.06262055     0.44200
Cu71       Cu  0.13746996  0.76194094  0.02416765     0.42000
Cu72       Cu  0.13642164  0.80125222  0.03467149     0.43900
N73         N  0.13891454  0.79580923  0.06741246    -0.34400
N74         N  0.13803391  0.80617563  0.05710838    -0.28700
C75         C  0.13782207  0.81956332  0.06368104    -0.04800
C76         C  0.13852973  0.81754295  0.07891864     0.07400
C77         C  0.13920631  0.80227757  0.08080891     0.01200
H78         H  0.13689701  0.82996387  0.05776726     0.08900
H79         H  0.13995268  0.79624937  0.09113908     0.07900
N80         N  0.13324817  0.79352945  0.01320564    -0.35900
N81         N  0.13355607  0.77939055  0.00933882    -0.28100
C82         C  0.13070087  0.77840035  0.99473499    -0.03300
C83         C  0.12847055  0.79260052  0.98905241     0.05300
C84         C  0.13019731  0.80184954  0.00120575     0.03400
H85         H  0.13021170  0.76802616  0.98877877     0.08500
H86         H  0.12926907  0.81379922  0.00144465     0.07300
N87         N  0.13551316  0.89896684  0.15484821    -0.03200
C88         C  0.14535255  0.91038271  0.15624896    -0.00600
C89         C  0.14038527  0.92035224  0.16674758    -0.23500
C90         C  0.12727544  0.91495394  0.17209813    -0.23700
C91         C  0.12445158  0.90185480  0.16470344    -0.00700
H92         H  0.14590766  0.93033794  0.17043298     0.13000
H93         H  0.12042706  0.92011535  0.18045238     0.13100
N94         N  0.50029642  0.86849971  0.29251728    -0.27100
N95         N  0.49701716  0.86802953  0.30675883    -0.34900
C96         C  0.50955756  0.86993014  0.31466364     0.01300
C97         C  0.52140493  0.87166270  0.30496798     0.07300
C98         C  0.51496757  0.87068171  0.29100341    -0.05800
H99         H  0.50996933  0.86996443  0.32661787     0.08000
H100        H  0.52047090  0.87158454  0.28042682     0.09200
Cu101      Cu  0.47542491  0.86483990  0.31458302     0.44200
Cu102      Cu  0.48463417  0.86601824  0.27566476     0.42000
Cu103      Cu  0.44670856  0.85944267  0.28603865     0.43900
N104        N  0.45286012  0.86202996  0.31916350    -0.34400
N105        N  0.44260078  0.86017853  0.30885679    -0.28700
C106        C  0.42926709  0.85926319  0.31543534    -0.04800
C107        C  0.43106293  0.86059377  0.33065579     0.07400
C108        C  0.44625101  0.86227871  0.33254959     0.01200
H109        H  0.41899281  0.85779416  0.30946868     0.08900
H110        H  0.45208501  0.86394495  0.34287001     0.07900
N111        N  0.45375872  0.85986248  0.26395036    -0.35900
N112        N  0.46768492  0.86245160  0.26032505    -0.28100
C113        C  0.46899319  0.86199839  0.24551211    -0.03300
C114        C  0.45523216  0.85893582  0.23927076     0.05300
C115        C  0.44584132  0.85766225  0.25144096     0.03400
H116        H  0.47936258  0.86364709  0.23980147     0.08500
H117        H  0.43413269  0.85518577  0.25127542     0.07300
N118        N  0.35238386  0.86295944  0.40963392    -0.03200
C119        C  0.35049281  0.85306401  0.42090555    -0.00600
C120        C  0.33895896  0.85752584  0.42990458    -0.23500
C121        C  0.33345910  0.87041656  0.42400369    -0.23700
C122        C  0.34181835  0.87359550  0.41158685    -0.00700
H123        H  0.33469206  0.85177659  0.43951889     0.13000
H124        H  0.32439498  0.87689018  0.42841930     0.13100
N125        N  0.27208683  0.94620432  0.12791403    -0.27100
N126        N  0.27599698  0.93207934  0.12839479    -0.34900
C127        C  0.26372435  0.92365755  0.12952910     0.01300
C128        C  0.25136368  0.93286611  0.12980131     0.07300
C129        C  0.25722948  0.94711191  0.12872395    -0.05800
H130        H  0.26389292  0.91169204  0.13033183     0.08000
H131        H  0.25123321  0.95748846  0.12879950     0.09200
Cu132      Cu  0.29796159  0.92493848  0.12799217     0.44200
Cu133      Cu  0.28718400  0.96377475  0.12679011     0.42000
Cu134      Cu  0.32603364  0.95379729  0.12744344     0.43900
N135        N  0.32066177  0.92072152  0.12750991    -0.34400
N136        N  0.33086450  0.93122592  0.12742249    -0.28700
C137        C  0.34434065  0.92486772  0.12688048    -0.04800
C138        C  0.34262637  0.90955989  0.12655875     0.07400
C139        C  0.32739597  0.90740806  0.12699856     0.01200
H140        H  0.35459921  0.93102649  0.12645331     0.08900
H141        H  0.32154924  0.89694748  0.12694529     0.07900
N142        N  0.31853297  0.97560877  0.12649653    -0.35900
N143        N  0.30437856  0.97931641  0.12618637    -0.28100
C144        C  0.30331260  0.99420122  0.12521019    -0.03300
C145        C  0.31749268  0.00023572  0.12486907     0.05300
C146        C  0.32681480  0.98799531  0.12570975     0.03400
H147        H  0.29292463  0.00012277  0.12448549     0.08500
H148        H  0.33878205  0.98799027  0.12564237     0.07300
N149        N  0.42394810  0.83334642  0.12281282    -0.03200
C150        C  0.43461188  0.83146758  0.13336409    -0.00600
C151        C  0.44386334  0.81988809  0.12948904    -0.23500
C152        C  0.43877296  0.81438080  0.11629823    -0.23700
C153        C  0.42659764  0.82279597  0.11232894    -0.00700
H154        H  0.45322013  0.81572451  0.13573682     0.13000
H155        H  0.44359195  0.80531244  0.11012091     0.13100
N156        N  0.88539515  0.22797349  0.95395719    -0.27100
N157        N  0.88352776  0.22365017  0.94012594    -0.34900
C158        C  0.88187123  0.23568383  0.93143819     0.01300
C159        C  0.88276176  0.24831608  0.94017983     0.07300
C160        C  0.88501129  0.24288743  0.95442900    -0.05800
H161        H  0.88008647  0.23517442  0.91961969     0.08000
H162        H  0.88599654  0.24922534  0.96452192     0.09200
Cu163      Cu  0.88328677  0.20152465  0.93378260     0.44200
Cu164      Cu  0.88774621  0.21328033  0.97164309     0.42000
Cu165      Cu  0.88730689  0.17388789  0.96290192     0.43900
N166        N  0.88444212  0.17885632  0.92990239    -0.34400
N167        N  0.88597234  0.16873957  0.94039716    -0.28700
C168        C  0.88667649  0.15524646  0.93404566    -0.04800
C169        C  0.88555378  0.15690287  0.91876722     0.07400
C170        C  0.88413464  0.17210265  0.91665528     0.01200
H171        H  0.88805013  0.14503002  0.94017698     0.08900
H172        H  0.88300269  0.17796249  0.90627083     0.07900
N173        N  0.88859782  0.18221186  0.98443959    -0.35900
N174        N  0.88876417  0.19653617  0.98755960    -0.28100
C175        C  0.88956473  0.19823903  0.00233516    -0.03300
C176        C  0.88994700  0.18432397  0.00896512     0.05300
C177        C  0.88933788  0.17444643  0.99718193     0.03400
H178        H  0.89001362  0.20889111  0.00779728     0.08500
H179        H  0.88932692  0.16246624  0.99777322     0.07300
N180        N  0.88753733  0.07543924  0.84293168    -0.03200
C181        C  0.87775211  0.06401626  0.84169142    -0.00600
C182        C  0.88206424  0.05469964  0.83033477    -0.23500
C183        C  0.89477834  0.06057157  0.82437937    -0.23700
C184        C  0.89800805  0.07325065  0.83233468    -0.00700
H185        H  0.87643250  0.04478775  0.82661539     0.13000
H186        H  0.90118380  0.05588901  0.81541753     0.13100
N187        N  0.02064995  0.11319706  0.79328286    -0.27100
N188        N  0.02496191  0.11219497  0.80722593    -0.34900
C189        C  0.01305988  0.10978062  0.81586373     0.01300
C190        C  0.00048167  0.10919292  0.80700452     0.07300
C191        C  0.00584330  0.11145432  0.79271729    -0.05800
H192        H  0.01366135  0.10822410  0.82771227     0.08000
H193        H  0.99954933  0.11154466  0.78254113     0.09200
Cu194      Cu  0.04699244  0.11332871  0.81377854     0.44200
Cu195      Cu  0.03538422  0.11602641  0.77555671     0.42000
Cu196      Cu  0.07467057  0.11533000  0.78471375     0.43900
N197        N  0.06965801  0.11366022  0.81771645    -0.34400
N198        N  0.07979860  0.11410975  0.80719269    -0.28700
C199        C  0.09331570  0.11387142  0.81351493    -0.04800
C200        C  0.09162477  0.11332509  0.82878170     0.07400
C201        C  0.07642899  0.11321198  0.83096889     0.01200
H202        H  0.10360049  0.11427202  0.80741502     0.08900
H203        H  0.07063782  0.11263466  0.84141830     0.07900
N204        N  0.06660747  0.11729460  0.76315834    -0.35900
N205        N  0.05236211  0.11772702  0.75979671    -0.28100
C206        C  0.05096414  0.11933456  0.74502409    -0.03300
C207        C  0.06500392  0.11992313  0.73866877     0.05300
C208        C  0.07459739  0.11858570  0.75064131     0.03400
H209        H  0.04042751  0.12003427  0.73938380     0.08500
H210        H  0.08655987  0.11874857  0.75038778     0.07300
N211        N  0.16824637  0.11153946  0.90973203    -0.03200
C212        C  0.16932213  0.12145560  0.92109010    -0.00600
C213        C  0.18000399  0.11690066  0.93107848    -0.23500
C214        C  0.18584700  0.10396189  0.92574906    -0.23700
C215        C  0.17854004  0.10083340  0.91267372    -0.00700
H216        H  0.18354887  0.12266541  0.94096043     0.13000
H217        H  0.19458924  0.09751479  0.93085466     0.13100
N218        N  0.05161373  0.61274277  0.24169431    -0.27100
N219        N  0.06573415  0.61309578  0.23788366    -0.34900
C220        C  0.07408913  0.61431234  0.25018451     0.01300
C221        C  0.06483126  0.61475987  0.26244579     0.07300
C222        C  0.05064370  0.61372047  0.25651698    -0.05800
H223        H  0.08603545  0.61500441  0.25010011     0.08000
H224        H  0.04026610  0.61396884  0.26244540     0.09200
Cu225      Cu  0.07301527  0.61244668  0.21605329     0.44200
Cu226      Cu  0.03406082  0.61136142  0.22661826     0.42000
Cu227      Cu  0.04416500  0.61059721  0.18802247     0.43900
N228        N  0.07720070  0.61206292  0.19341166    -0.34400
N229        N  0.06671162  0.61152281  0.18321279    -0.28700
C230        C  0.07306715  0.61149574  0.16974521    -0.04800
C231        C  0.08834130  0.61199313  0.17147785     0.07400
C232        C  0.09048841  0.61234841  0.18669683     0.01200
H233        H  0.06695428  0.61095926  0.15946579     0.08900
H234        H  0.10092548  0.61291235  0.19254000     0.07900
N235        N  0.02232523  0.60932889  0.19534631    -0.35900
N236        N  0.01855696  0.60967131  0.20946378    -0.28100
C237        C  0.00371420  0.60847658  0.21048839    -0.03300
C238        C  0.99775726  0.60727393  0.19631183     0.05300
C239        C  0.01001605  0.60787213  0.18704468     0.03400
H240        H  0.99776483  0.60827225  0.22085767     0.08500
H241        H  0.01007297  0.60729525  0.17509974     0.07300
N242        N  0.16878992  0.61277894  0.09448773    -0.03200
C243        C  0.17109789  0.62287140  0.08351702    -0.00600
C244        C  0.18341646  0.61908201  0.07531772    -0.23500
C245        C  0.18902435  0.60632733  0.08147086    -0.23700
C246        C  0.17988382  0.60264231  0.09316633    -0.00700
H247        H  0.18810751  0.62522968  0.06615762     0.13000
H248        H  0.19868328  0.60029511  0.07774507     0.13100
N249        N  0.63398833  0.19322236  0.00770688    -0.27100
N250        N  0.63210299  0.17914647  0.01138124    -0.34900
C251        C  0.62918807  0.17128914  0.99907038     0.01300
C252        C  0.62922292  0.18079804  0.98693031     0.07300
C253        C  0.63233680  0.19464969  0.99294386    -0.05800
H254        H  0.62722477  0.15946386  0.99906237     0.08000
H255        H  0.63321039  0.20508822  0.98710011     0.09200
Cu256      Cu  0.63350671  0.17103846  0.03301683     0.44200
Cu257      Cu  0.63841176  0.20993229  0.02305993     0.42000
Cu258      Cu  0.64095752  0.19841712  0.06139899     0.43900
N259        N  0.63559922  0.16580199  0.05545888    -0.34400
N260        N  0.63829041  0.17587314  0.06572708    -0.28700
C261        C  0.63893521  0.16916412  0.07901761    -0.04800
C262        C  0.63655420  0.15406229  0.07716025     0.07400
C263        C  0.63450585  0.15238231  0.06199909     0.01200
H264        H  0.64113031  0.17493400  0.08926320     0.08900
H265        H  0.63222726  0.14219238  0.05612697     0.07900
N266        N  0.64282774  0.22041823  0.05457074    -0.35900
N267        N  0.64192517  0.22459526  0.04057696    -0.28100
C268        C  0.64339365  0.23943348  0.03983068    -0.03300
C269        C  0.64530619  0.24500734  0.05406078     0.05300
C270        C  0.64489358  0.23249867  0.06308494     0.03400
H271        H  0.64304801  0.24563136  0.02958906     0.08500
H272        H  0.64597633  0.23211122  0.07499210     0.07300
N273        N  0.63574708  0.07904319  0.15990601    -0.03200
C274        C  0.62597392  0.07861145  0.17137021    -0.00600
C275        C  0.63004317  0.06772346  0.18137929    -0.23500
C276        C  0.64259380  0.06115241  0.17592937    -0.23700
C277        C  0.64593987  0.06828212  0.16279996    -0.00700
H278        H  0.62426394  0.06461608  0.19139906     0.13000
H279        H  0.64878016  0.05226718  0.18112409     0.13100
N280        N  0.75159433  0.02994463  0.87432685    -0.27100
N281        N  0.74830392  0.04416653  0.87284813    -0.34900
C282        C  0.76097134  0.05197367  0.87147426     0.01300
C283        C  0.77295489  0.04226518  0.87210127     0.07300
C284        C  0.76643226  0.02837399  0.87392783    -0.05800
H285        H  0.76134150  0.06386218  0.86993603     0.08000
H286        H  0.77199503  0.01777943  0.87465767     0.09200
Cu287      Cu  0.72656006  0.05221358  0.87231286     0.44200
Cu288      Cu  0.73564353  0.01312602  0.87637425     0.42000
Cu289      Cu  0.69732522  0.02436590  0.87330650     0.43900
N290        N  0.70391627  0.05717273  0.87184690    -0.34400
N291        N  0.69338258  0.04699504  0.87192763    -0.28700
C292        C  0.68008745  0.05373327  0.87184780    -0.04800
C293        C  0.68223352  0.06896574  0.87181037     0.07400
C294        C  0.69753918  0.07068274  0.87177706     0.01200
H295        H  0.66964401  0.04789067  0.87224759     0.08900
H296        H  0.70366246  0.08098557  0.87178157     0.07900
N297        N  0.70377557  0.00252303  0.87663148    -0.35900
N298        N  0.71774932  0.99833830  0.87784560    -0.28100
C299        C  0.71813921  0.98356275  0.88012466    -0.03300
C300        C  0.70370540  0.97812734  0.88037289     0.05300
C301        C  0.69494079  0.99058731  0.87813570     0.03400
H302        H  0.72824056  0.97730202  0.88163604     0.08500
H303        H  0.68299175  0.99101427  0.87755032     0.07300
N304        N  0.60357181  0.14806812  0.87136193    -0.03200
C305        C  0.60183999  0.15940101  0.88117222    -0.00600
C306        C  0.59037706  0.16856357  0.87680059    -0.23500
C307        C  0.58470299  0.16266756  0.86402426    -0.23700
C308        C  0.59294226  0.15013787  0.86085730    -0.00700
H309        H  0.58619258  0.17817020  0.88261905     0.13000
H310        H  0.57549124  0.16703685  0.85770020     0.13100
N311        N  0.51983896  0.11085844  0.70563871    -0.27100
N312        N  0.52367173  0.11038892  0.69154272    -0.34900
C313        C  0.51138274  0.10966881  0.68313919     0.01300
C314        C  0.49909239  0.10972350  0.69233947     0.07300
C315        C  0.50497402  0.11048649  0.70655474    -0.05800
H316        H  0.51148559  0.10908286  0.67119320     0.08000
H317        H  0.49895689  0.11045119  0.71688715     0.09200
Cu318      Cu  0.54544747  0.11071116  0.68431671     0.44200
Cu319      Cu  0.53507124  0.11179246  0.72302956     0.42000
Cu320      Cu  0.57375789  0.11324257  0.71269415     0.43900
N321        N  0.56792499  0.11195532  0.67985139    -0.34400
N322        N  0.57823175  0.11282709  0.69020119    -0.28700
C323        C  0.59158604  0.11360402  0.68370485    -0.04800
C324        C  0.58963855  0.11323558  0.66848336     0.07400
C325        C  0.57444760  0.11219540  0.66648676     0.01200
H326        H  0.60191248  0.11458798  0.68968974     0.08900
H327        H  0.56851361  0.11154685  0.65610823     0.07900
N328        N  0.56650857  0.11415224  0.73443177    -0.35900
N329        N  0.55240952  0.11357202  0.73824739    -0.28100
C330        C  0.55140945  0.11501660  0.75302917    -0.03300
C331        C  0.56558023  0.11665626  0.75889050     0.05300
C332        C  0.57483543  0.11600058  0.74664984     0.03400
H333        H  0.54102692  0.11518033  0.75894924     0.08500
H334        H  0.58674487  0.11713205  0.74648471     0.07300
N335        N  0.67077356  0.11637053  0.59265635    -0.03200
C336        C  0.68197379  0.10635575  0.59150679    -0.00600
C337        C  0.69168220  0.11051617  0.58044943    -0.23500
C338        C  0.68624981  0.12340972  0.57444831    -0.23700
C339        C  0.67347722  0.12680510  0.58212251    -0.00700
H340        H  0.70146556  0.10459116  0.57687950     0.13000
H341        H  0.69115281  0.12972608  0.56551777     0.13100
N342        N  0.76989689  0.03102524  0.12493350    -0.27100
N343        N  0.77326024  0.04526322  0.12584182    -0.34900
C344        C  0.76076697  0.05306203  0.12824919     0.01300
C345        C  0.74885700  0.04330511  0.12890371     0.07300
C346        C  0.75519475  0.02941264  0.12671865    -0.05800
H347        H  0.76049934  0.06496494  0.12963749     0.08000
H348        H  0.74963481  0.01880234  0.12659358     0.09200
Cu349      Cu  0.79480904  0.05342015  0.12408162     0.44200
Cu350      Cu  0.78548365  0.01421342  0.12188729     0.42000
Cu351      Cu  0.82357815  0.02577245  0.11856525     0.43900
N352        N  0.81724032  0.05851231  0.12188311    -0.34400
N353        N  0.82763519  0.04841211  0.11980025    -0.28700
C354        C  0.84088242  0.05517139  0.11902604    -0.04800
C355        C  0.83885308  0.07034503  0.12072281     0.07400
C356        C  0.82364221  0.07198737  0.12249234     0.01200
H357        H  0.85121453  0.04934862  0.11740918     0.08900
H358        H  0.81760673  0.08217508  0.12432643     0.07900
N359        N  0.81704165  0.00369039  0.11835812    -0.35900
N360        N  0.80310879  0.99942714  0.11955939    -0.28100
C361        C  0.80256930  0.98451409  0.11905624    -0.03300
C362        C  0.81688761  0.97901914  0.11746315     0.05300
C363        C  0.82572752  0.99162706  0.11706372     0.03400
H364        H  0.79240979  0.97822372  0.11972108     0.08500
H365        H  0.83761960  0.99211008  0.11585035     0.07300
N366        N  0.91445551  0.15218382  0.12467516    -0.03200
C367        C  0.91522496  0.16375416  0.11498757    -0.00600
C368        C  0.92619652  0.17351474  0.11927943    -0.23500
C369        C  0.93248243  0.16777470  0.13188303    -0.23700
C370        C  0.92511221  0.15470189  0.13506521    -0.00700
H371        H  0.92954108  0.18355716  0.11361778     0.13000
H372        H  0.94134612  0.17276242  0.13821988     0.13100
N373        N  0.00104077  0.86800948  0.20667042    -0.27100
N374        N  0.99669674  0.86816961  0.19270730    -0.34900
C375        C  0.00851254  0.87053012  0.18395081     0.01300
C376        C  0.02106489  0.87194462  0.19274993     0.07300
C377        C  0.01577997  0.87027647  0.20714084    -0.05800
H378        H  0.00790384  0.87115433  0.17202149     0.08000
H379        H  0.02211799  0.87063474  0.21728490     0.09200
Cu380      Cu  0.97483588  0.86510979  0.18617214     0.44200
Cu381      Cu  0.98651315  0.86456247  0.22438637     0.42000
Cu382      Cu  0.94787590  0.85740105  0.21486628     0.43900
N383        N  0.95242263  0.86184991  0.18208130    -0.34400
N384        N  0.94256232  0.85899117  0.19249004    -0.28700
C385        C  0.92909306  0.85784734  0.18619354    -0.04800
C386        C  0.93049754  0.86008218  0.17104031     0.07400
C387        C  0.94550764  0.86257555  0.16891138     0.01200
H388        H  0.91903629  0.85560893  0.19227551     0.08900
H389        H  0.95104240  0.86506267  0.15860301     0.07900
N390        N  0.95588940  0.85782985  0.23647995    -0.35900
N391        N  0.96983118  0.86062930  0.23997631    -0.28100
C392        C  0.97117923  0.86050468  0.25482505    -0.03300
C393        C  0.95743814  0.85746430  0.26105951     0.05300
C394        C  0.94805385  0.85580653  0.24898821     0.03400
H395        H  0.98148949  0.86238614  0.26061289     0.08500
H396        H  0.93631029  0.85350556  0.24920513     0.07300
N397        N  0.85244579  0.86404090  0.09174619    -0.03200
C398        C  0.84165551  0.87446196  0.09007750    -0.00600
C399        C  0.83299224  0.87120483  0.07789784    -0.23500
C400        C  0.83864820  0.85849812  0.07178053    -0.23700
C401        C  0.85055721  0.85424720  0.08044800    -0.00700
H402        H  0.82378557  0.87763201  0.07366250     0.13000
H403        H  0.83444462  0.85287984  0.06207304     0.13100
N404        N  0.89437564  0.78298712  0.51113849    -0.27100
N405        N  0.89437036  0.79725250  0.51450470    -0.34900
C406        C  0.89605127  0.80522269  0.50197439     0.01300
C407        C  0.89719605  0.79554250  0.49005106     0.07300
C408        C  0.89605281  0.78152872  0.49642401    -0.05800
H409        H  0.89661995  0.81719740  0.50167554     0.08000
H410        H  0.89653975  0.77093334  0.49087520     0.09200
Cu411      Cu  0.89248923  0.80513771  0.53614170     0.44200
Cu412      Cu  0.89249519  0.76585644  0.52661928     0.42000
Cu413      Cu  0.88922346  0.77649813  0.56464102     0.43900
N414        N  0.89071111  0.80955288  0.55875135    -0.34400
N415        N  0.88955712  0.79908270  0.56894851    -0.28700
C416        C  0.88865014  0.80543447  0.58234800    -0.04800
C417        C  0.88925063  0.82071879  0.58065263     0.07400
C418        C  0.89055205  0.82288749  0.56547234     0.01200
H419        H  0.88748239  0.79926191  0.59254728     0.08900
H420        H  0.89143825  0.83335801  0.55968714     0.07900
N421        N  0.88919974  0.75453198  0.55789225    -0.35900
N422        N  0.89043962  0.75057577  0.54389253    -0.28100
C423        C  0.88964178  0.73569434  0.54303090    -0.03300
C424        C  0.88777052  0.72990684  0.55720474     0.05300
C425        C  0.88756645  0.74230743  0.56631227     0.03400
H426        H  0.89001630  0.72963633  0.53273012     0.08500
H427        H  0.88607181  0.74255150  0.57817401     0.07300
N428        N  0.88584889  0.89897947  0.65967733    -0.03200
C429        C  0.87612726  0.91036719  0.66148349    -0.00600
C430        C  0.87996807  0.91869312  0.67373105    -0.23500
C431        C  0.89239458  0.91227107  0.67970493    -0.23700
C432        C  0.89586871  0.90028087  0.67086302    -0.00700
H433        H  0.87422340  0.92832539  0.67797130     0.13000
H434        H  0.89850418  0.91618558  0.68923706     0.13100
N435        N  0.63530765  0.78199112  0.48765074    -0.27100
N436        N  0.63396204  0.79601578  0.48352218    -0.34900
C437        C  0.63263587  0.80457380  0.49563000     0.01300
C438        C  0.63322985  0.79560572  0.50810253     0.07300
C439        C  0.63497494  0.78132750  0.50256013    -0.05800
H440        H  0.63139012  0.81650241  0.49531508     0.08000
H441        H  0.63560223  0.77114036  0.50887317     0.09200
Cu442      Cu  0.63409741  0.80324035  0.46163846     0.44200
Cu443      Cu  0.63703710  0.76435621  0.47266204     0.42000
Cu444      Cu  0.63832399  0.77497943  0.43387489     0.43900
N445        N  0.63563021  0.80788606  0.43913028    -0.34400
N446        N  0.63724714  0.79747682  0.42899458    -0.28700
C447        C  0.63811074  0.80389866  0.41558134    -0.04800
C448        C  0.63701635  0.81916662  0.41726723     0.07400
C449        C  0.63544496  0.82123784  0.43241863     0.01200
H450        H  0.63960234  0.79782443  0.40538852     0.08900
H451        H  0.63417022  0.83165220  0.43819431     0.07900
N452        N  0.63891052  0.75310673  0.44111761    -0.35900
N453        N  0.63840172  0.74914938  0.45519578    -0.28100
C454        C  0.63912855  0.73424243  0.45603350    -0.03300
C455        C  0.64016910  0.72845303  0.44178247     0.05300
C456        C  0.63998995  0.74087585  0.43266694     0.03400
H457        H  0.63908350  0.72815378  0.46634663     0.08500
H458        H  0.64077477  0.74112869  0.42073587     0.07300
N459        N  0.63655610  0.89906393  0.33945210    -0.03200
C460        C  0.64676259  0.91007742  0.33760441    -0.00600
C461        C  0.64279964  0.91891652  0.32569910    -0.23500
C462        C  0.62993218  0.91321367  0.31999317    -0.23700
C463        C  0.62623193  0.90109804  0.32859872    -0.00700
H464        H  0.64878531  0.92839712  0.32143040     0.13000
H465        H  0.62377612  0.91758893  0.31067205     0.13100
N466        N  0.80424119  0.97574092  0.38423943    -0.27100
N467        N  0.81842856  0.97218707  0.38407899    -0.34900
C468        C  0.82656856  0.98461769  0.38576669     0.01300
C469        C  0.81708509  0.99672737  0.38699814     0.07300
C470        C  0.80298968  0.99052353  0.38600543    -0.05800
H471        H  0.83853533  0.98478929  0.38583313     0.08000
H472        H  0.79250219  0.99628212  0.38642545     0.09200
Cu473      Cu  0.82574030  0.95044687  0.38106576     0.44200
Cu474      Cu  0.78722582  0.96018944  0.38148104     0.42000
Cu475      Cu  0.79729358  0.92167016  0.37545061     0.43900
N476        N  0.83028300  0.92796767  0.37797840    -0.34400
N477        N  0.82013872  0.91755754  0.37606273    -0.28700
C478        C  0.82699303  0.90432618  0.37481154    -0.04800
C479        C  0.84220775  0.90643864  0.37596997     0.07400
C480        C  0.84377767  0.92163290  0.37795000     0.01200
H481        H  0.82124663  0.89393373  0.37320338     0.08900
H482        H  0.85396192  0.92771458  0.37956758     0.07900
N483        N  0.77534096  0.92924342  0.37523220    -0.35900
N484        N  0.77180627  0.94328841  0.37751710    -0.28100
C485        C  0.75704323  0.94484047  0.37617394    -0.03300
C486        C  0.75077950  0.93114438  0.37280428     0.05300
C487        C  0.76284642  0.92151800  0.37236913     0.03400
H488        H  0.75138075  0.95533548  0.37733145     0.08500
H489        H  0.76265475  0.90982001  0.36975443     0.07300
N490        N  0.92577041  0.83242421  0.37663701    -0.03200
C491        C  0.92874580  0.82157798  0.38671868    -0.00600
C492        C  0.94190750  0.81456517  0.38320486    -0.23500
C493        C  0.94725597  0.82130302  0.37067156    -0.23700
C494        C  0.93716009  0.83214968  0.36681031    -0.00700
H495        H  0.94716526  0.80560932  0.38923552     0.13000
H496        H  0.95719943  0.81829102  0.36472042     0.13100
N497        N  0.75323375  0.95063849  0.62512543    -0.27100
N498        N  0.74969410  0.93642497  0.62457827    -0.34900
C499        C  0.76209889  0.92825056  0.62573391     0.01300
C500        C  0.77414682  0.93770889  0.62713821     0.07300
C501        C  0.76801463  0.95185487  0.62664021    -0.05800
H502        H  0.76218856  0.91626266  0.62588664     0.08000
H503        H  0.77375165  0.96230900  0.62782739     0.09200
Cu504      Cu  0.72810597  0.92849952  0.62354065     0.44200
Cu505      Cu  0.73770016  0.96773531  0.62479748     0.42000
Cu506      Cu  0.69942361  0.95618698  0.62628239     0.43900
N507        N  0.70565709  0.92344696  0.62411586    -0.34400
N508        N  0.69525615  0.93366439  0.62533549    -0.28700
C509        C  0.68194308  0.92705825  0.62555664    -0.04800
C510        C  0.68393850  0.91183713  0.62443409     0.07400
C511        C  0.69919987  0.91000329  0.62353255     0.01200
H512        H  0.67160447  0.93303912  0.62635264     0.08900
H513        H  0.70525232  0.89969852  0.62262223     0.07900
N514        N  0.70591894  0.97814523  0.62527252    -0.35900
N515        N  0.71988607  0.98242421  0.62462806    -0.28100
C516        C  0.72029971  0.99727723  0.62326195    -0.03300
C517        C  0.70587189  0.00265009  0.62298666     0.05300
C518        C  0.69708101  0.99011491  0.62430929     0.03400
H519        H  0.73040177  0.00358768  0.62205439     0.08500
H520        H  0.68512262  0.98960997  0.62431011     0.07300
N521        N  0.60672379  0.83156624  0.62246651    -0.03200
C522        C  0.60560241  0.82089478  0.61189724    -0.00600
C523        C  0.59385800  0.81158500  0.61489268    -0.23500
C524        C  0.58741753  0.81668143  0.62765437    -0.23700
C525        C  0.59547890  0.82891195  0.63213852    -0.00700
H526        H  0.59015108  0.80230385  0.60827786     0.13000
H527        H  0.57792545  0.81189349  0.63317651     0.13100
N528        N  0.55200992  0.85683168  0.75659985    -0.27100
N529        N  0.56609635  0.85640530  0.76060177    -0.34900
C530        C  0.57452443  0.85444701  0.74847735     0.01300
C531        C  0.56540806  0.85362200  0.73610175     0.07300
C532        C  0.55116976  0.85517525  0.74179841    -0.05800
H533        H  0.58647119  0.85383446  0.74873773     0.08000
H534        H  0.54087366  0.85512583  0.73568813     0.09200
Cu535      Cu  0.57355953  0.85879276  0.78235434     0.44200
Cu536      Cu  0.53443502  0.85979484  0.77145361     0.42000
Cu537      Cu  0.54520794  0.86487541  0.80971245     0.43900
N538        N  0.57811402  0.86166957  0.80483356    -0.34400
N539        N  0.56764125  0.86391051  0.81477209    -0.28700
C540        C  0.57388139  0.86502515  0.82824434    -0.04800
C541        C  0.58910462  0.86340647  0.82685404     0.07400
C542        C  0.59133911  0.86133392  0.81176597     0.01200
H543        H  0.56769031  0.86684895  0.83830572     0.08900
H544        H  0.60176324  0.85941475  0.80622030     0.07900
N545        N  0.52330524  0.86479805  0.80263781    -0.35900
N546        N  0.51925807  0.86295027  0.78870534    -0.28100
C547        C  0.50436774  0.86364879  0.78790777    -0.03300
C548        C  0.49870179  0.86604664  0.80203990     0.05300
C549        C  0.51115931  0.86669210  0.81103715     0.03400
H550        H  0.49818448  0.86256094  0.77771908     0.08500
H551        H  0.51148288  0.86867188  0.82282646     0.07300
N552        N  0.66721937  0.86304084  0.90649832    -0.03200
C553        C  0.66985071  0.85282236  0.91737754    -0.00600
C554        C  0.68231161  0.85685025  0.92536081    -0.23500
C555        C  0.68751664  0.86976777  0.91932352    -0.23700
C556        C  0.67811023  0.87342350  0.90782939    -0.00700
H557        H  0.68732606  0.85085284  0.93446463     0.13000
H558        H  0.69703810  0.87599665  0.92309407     0.13100
N559        N  0.50084582  0.61160197  0.79225914    -0.27100
N560        N  0.49682762  0.61120294  0.80631007    -0.34900
C561        C  0.50893153  0.60965491  0.81482592     0.01300
C562        C  0.52132458  0.60898576  0.80579310     0.07300
C563        C  0.51568978  0.61029513  0.79150648    -0.05800
H564        H  0.50857999  0.60886693  0.82675278     0.08000
H565        H  0.52182874  0.60998707  0.78125186     0.09200
Cu566      Cu  0.47509920  0.61199400  0.81366201     0.44200
Cu567      Cu  0.48578915  0.61348249  0.77479250     0.42000
Cu568      Cu  0.44701149  0.61376380  0.78564073     0.43900
N569        N  0.45264812  0.61212552  0.81843347    -0.34400
N570        N  0.44233843  0.61261061  0.80807649    -0.28700
C571        C  0.42894885  0.61254885  0.81453730    -0.04800
C572        C  0.43084749  0.61201776  0.82978020     0.07400
C573        C  0.44609431  0.61176357  0.83179338     0.01200
H574        H  0.41862434  0.61309254  0.80849654     0.08900
H575        H  0.45205874  0.61127714  0.84216364     0.07900
N576        N  0.45415865  0.61584811  0.76393438    -0.35900
N577        N  0.46821873  0.61573960  0.75990758    -0.28100
C578        C  0.46896370  0.61764853  0.74514752    -0.03300
C579        C  0.45467153  0.61905913  0.73956108     0.05300
C580        C  0.44561850  0.61785202  0.75189270     0.03400
H581        H  0.47922472  0.61824383  0.73903259     0.08500
H582        H  0.43366778  0.61841864  0.75219609     0.07300
N583        N  0.35311126  0.61186901  0.90917469    -0.03200
C584        C  0.35162296  0.62165138  0.92057753    -0.00600
C585        C  0.34033074  0.61712021  0.92984089    -0.23500
C586        C  0.33457715  0.60432254  0.92395483    -0.23700
C587        C  0.34257564  0.60121625  0.91129354    -0.00700
H588        H  0.33646376  0.62272081  0.93968783     0.13000
H589        H  0.32562960  0.59782216  0.92857253     0.13100
N590        N  0.38324335  0.74839644  0.95698994    -0.27100
N591        N  0.38085219  0.75203959  0.94300771    -0.34900
C592        C  0.37813062  0.73962760  0.93514839     0.01300
C593        C  0.37884583  0.72739428  0.94453632     0.07300
C594        C  0.38211349  0.73352604  0.95832880    -0.05800
H595        H  0.37589728  0.73958957  0.92339457     0.08000
H596        H  0.38356554  0.72765531  0.96866743     0.09200
Cu597      Cu  0.38177566  0.77380217  0.93512032     0.44200
Cu598      Cu  0.38797656  0.76402217  0.97368873     0.42000
Cu599      Cu  0.39027528  0.80254419  0.96194782     0.43900
N600        N  0.38431169  0.79617236  0.92970305    -0.34400
N601        N  0.38743806  0.80662002  0.93945794    -0.28700
C602        C  0.38860890  0.81972803  0.93238646    -0.04800
C603        C  0.38613864  0.81750138  0.91737879     0.07400
C604        C  0.38342815  0.80237195  0.91617140     0.01200
H605        H  0.39126298  0.83006244  0.93782872     0.08900
H606        H  0.38095140  0.79623002  0.90621028     0.07900
N607        N  0.39289115  0.79580909  0.98382956    -0.35900
N608        N  0.39214196  0.78183042  0.98822056    -0.28100
C609        C  0.39433215  0.78136905  0.00299128    -0.03300
C610        C  0.39655692  0.79575644  0.00823190     0.05300
C611        C  0.39554789  0.80454358  0.99561619     0.03400
H612        H  0.39428378  0.77123208  0.00939659     0.08500
H613        H  0.39665384  0.81646441  0.99494581     0.07300
N614        N  0.38461053  0.89527352  0.83755009    -0.03200
C615        C  0.37430740  0.90614945  0.83587251    -0.00600
C616        C  0.37813972  0.91532976  0.82422773    -0.23500
C617        C  0.39112819  0.90990111  0.81849622    -0.23700
C618        C  0.39495295  0.89760903  0.82686908    -0.00700
H619        H  0.37200578  0.92482297  0.82017120     0.13000
H620        H  0.39727484  0.91459755  0.80934763     0.13100
N621        N  0.63419881  0.69476269  0.99069716    -0.27100
N622        N  0.63283012  0.68071972  0.98673881    -0.34900
C623        C  0.63170555  0.67221654  0.99894360     0.01300
C624        C  0.63235335  0.68124609  0.01136451     0.07300
C625        C  0.63396116  0.69551126  0.00559470    -0.05800
H626        H  0.63028183  0.66031633  0.99867388     0.08000
H627        H  0.63464420  0.70578273  0.01170484     0.09200
Cu628      Cu  0.63196468  0.67357351  0.96491531     0.44200
Cu629      Cu  0.63594828  0.71233899  0.97549318     0.42000
Cu630      Cu  0.63359203  0.70209960  0.93676421     0.43900
N631        N  0.63121782  0.66916620  0.94237787    -0.34400
N632        N  0.63167591  0.67961587  0.93212126    -0.28700
C633        C  0.63139789  0.67321015  0.91870230    -0.04800
C634        C  0.63078234  0.65792098  0.92051966     0.07400
C635        C  0.63065778  0.65582232  0.93574935     0.01200
H636        H  0.63203657  0.67930669  0.90841110     0.08900
H637        H  0.63032432  0.64539143  0.94166421     0.07900
N638        N  0.63681650  0.72376428  0.94389741    -0.35900
N639        N  0.63774056  0.72759424  0.95797764    -0.28100
C640        C  0.64024332  0.74231925  0.95874210    -0.03300
C641        C  0.64096229  0.74811319  0.94444234     0.05300
C642        C  0.63870559  0.73588647  0.93537924     0.03400
H643        H  0.64152573  0.74829226  0.96902149     0.08500
H644        H  0.63863929  0.73567592  0.92342033     0.07300
N645        N  0.63446094  0.57882222  0.84241853    -0.03200
C646        C  0.62445486  0.57676910  0.83135166    -0.00600
C647        C  0.62817780  0.56445064  0.82308069    -0.23500
C648        C  0.64079732  0.55863242  0.82930148    -0.23700
C649        C  0.64448740  0.56765784  0.84109851    -0.00700
H650        H  0.62211770  0.55993250  0.81378677     0.13000
H651        H  0.64676567  0.54894732  0.82551275     0.13100
N652        N  0.77101251  0.45084318  0.62608730    -0.27100
N653        N  0.77460141  0.43664932  0.62562257    -0.34900
C654        C  0.76228437  0.42842013  0.62731562     0.01300
C655        C  0.75022277  0.43785180  0.62896516     0.07300
C656        C  0.75629767  0.45202014  0.62808799    -0.05800
H657        H  0.76225526  0.41643301  0.62758562     0.08000
H658        H  0.75056046  0.46249737  0.62904084     0.09200
Cu659      Cu  0.79626100  0.42923344  0.62344960     0.44200
Cu660      Cu  0.78651343  0.46792845  0.62456710     0.42000
Cu661      Cu  0.82529120  0.45737244  0.62343241     0.43900
N662        N  0.81874226  0.42449363  0.62237026    -0.34400
N663        N  0.82929781  0.43464053  0.62261315    -0.28700
C664        C  0.84253432  0.42781545  0.62192235    -0.04800
C665        C  0.84025677  0.41259473  0.62115045     0.07400
C666        C  0.82497812  0.41097757  0.62148006     0.01200
H667        H  0.85301278  0.43360247  0.62181786     0.08900
H668        H  0.81875345  0.40074034  0.62124983     0.07900
N669        N  0.81804806  0.47929800  0.62290907    -0.35900
N670        N  0.80391515  0.48308210  0.62323794    -0.28100
C671        C  0.80284851  0.49793149  0.62221545    -0.03300
C672        C  0.81699239  0.50391475  0.62116603     0.05300
C673        C  0.82633407  0.49166379  0.62165131     0.03400
H674        H  0.79244063  0.50384648  0.62190589     0.08500
H675        H  0.83828232  0.49164686  0.62098085     0.07300
N676        N  0.91801561  0.33278334  0.62194058    -0.03200
C677        C  0.92019326  0.32141996  0.61227192    -0.00600
C678        C  0.93194016  0.31271785  0.61683206    -0.23500
C679        C  0.93728869  0.31891284  0.62961445    -0.23700
C680        C  0.92857985  0.33116273  0.63260395    -0.00700
H681        H  0.93628960  0.30300498  0.61131662     0.13000
H682        H  0.94638789  0.31473642  0.63622308     0.13100
N683        N  0.97021228  0.61610516  0.74005129    -0.27100
N684        N  0.95613047  0.61620172  0.73609073    -0.34900
C685        C  0.94767904  0.61808463  0.74821905     0.01300
C686        C  0.95683193  0.61924014  0.76055698     0.07300
C687        C  0.97107874  0.61793756  0.75481637    -0.05800
H688        H  0.93572989  0.61868347  0.74796188     0.08000
H689        H  0.98140551  0.61832823  0.76085333     0.09200
Cu690      Cu  0.94922372  0.61411167  0.71420047     0.44200
Cu691      Cu  0.98761934  0.61353245  0.72500827     0.42000
Cu692      Cu  0.97814858  0.61109402  0.68603066     0.43900
N693        N  0.94512047  0.61303558  0.69154766    -0.34400
N694        N  0.95554084  0.61215897  0.68132346    -0.28700
C695        C  0.94908805  0.61215385  0.66787886    -0.04800
C696        C  0.93382981  0.61304079  0.66965734     0.07400
C697        C  0.93180532  0.61355872  0.68487692     0.01200
H698        H  0.95513715  0.61150967  0.65758585     0.08900
H699        H  0.92144387  0.61452639  0.69076735     0.07900
N700        N  0.99984021  0.60990546  0.69394391    -0.35900
N701        N  0.00323702  0.61075489  0.70814730    -0.28100
C702        C  0.01800931  0.60945604  0.70967364    -0.03300
C703        C  0.02437854  0.60770417  0.69576314     0.05300
C704        C  0.01238434  0.60805426  0.68608374     0.03400
H705        H  0.02361804  0.60971711  0.72023937     0.08500
H706        H  0.01265954  0.60696610  0.67417794     0.07300
N707        N  0.85301467  0.61777159  0.59306934    -0.03200
C708        C  0.85109478  0.62838816  0.58252770    -0.00600
C709        C  0.83830705  0.62573133  0.57456398    -0.23500
C710        C  0.83205151  0.61315143  0.58041646    -0.23700
C711        C  0.84128301  0.60840841  0.59169452    -0.00700
H712        H  0.83391960  0.63234474  0.56556083     0.13000
H713        H  0.82202034  0.60781248  0.57660743     0.13100
N714        N  0.80143942  0.49700984  0.87604978    -0.27100
N715        N  0.81547586  0.50109284  0.87659343    -0.34900
C716        C  0.82406106  0.48897892  0.87796269     0.01300
C717        C  0.81510444  0.47646881  0.87837069     0.07300
C718        C  0.80077183  0.48209074  0.87708630    -0.05800
H719        H  0.83597398  0.48940846  0.87897581     0.08000
H720        H  0.79053878  0.47588140  0.87721246     0.09200
Cu721      Cu  0.82256134  0.52299027  0.87631426     0.44200
Cu722      Cu  0.78394888  0.51227986  0.87459329     0.42000
Cu723      Cu  0.79434893  0.55139666  0.87522571     0.43900
N724        N  0.82723165  0.54553365  0.87621130    -0.34400
N725        N  0.81691195  0.55592022  0.87595864    -0.28700
C726        C  0.82347907  0.56930567  0.87567971    -0.04800
C727        C  0.83872903  0.56731217  0.87569720     0.07400
C728        C  0.84063950  0.55203072  0.87606433     0.01200
H729        H  0.81750985  0.57969029  0.87512023     0.08900
H730        H  0.85098924  0.54599953  0.87615994     0.07900
N731        N  0.77258261  0.54405975  0.87358045    -0.35900
N732        N  0.76878815  0.52989408  0.87336017    -0.28100
C733        C  0.75396349  0.52896680  0.87208912    -0.03300
C734        C  0.74804669  0.54322039  0.87146674     0.05300
C735        C  0.76029464  0.55247320  0.87241441     0.03400
H736        H  0.74799486  0.51859757  0.87144432     0.08500
H737        H  0.76034596  0.56446793  0.87229916     0.07300
N738        N  0.91480843  0.64872663  0.87204183    -0.03200
C739        C  0.91532328  0.66025865  0.88180493    -0.00600
C740        C  0.92675553  0.66976973  0.87817402    -0.23500
C741        C  0.93362585  0.66393705  0.86599284    -0.23700
C742        C  0.92615934  0.65106059  0.86236385    -0.00700
H743        H  0.93009400  0.67964974  0.88408708     0.13000
H744        H  0.94303855  0.66866935  0.86028919     0.13100
N745        N  0.96695119  0.36529110  0.75651191    -0.27100
N746        N  0.95286082  0.36531632  0.76044699    -0.34900
C747        C  0.94433668  0.36405043  0.74830501     0.01300
C748        C  0.95338548  0.36310638  0.73594410     0.07300
C749        C  0.96770102  0.36397513  0.74166823    -0.05800
H750        H  0.93238760  0.36354947  0.74860764     0.08000
H751        H  0.97797483  0.36334011  0.73558513     0.09200
Cu752      Cu  0.94550060  0.36594546  0.78216016     0.44200
Cu753      Cu  0.98451435  0.36651158  0.77173262     0.42000
Cu754      Cu  0.97357183  0.36653980  0.81036585     0.43900
N755        N  0.94081483  0.36510167  0.80459583    -0.34400
N756        N  0.95116503  0.36521986  0.81491518    -0.28700
C757        C  0.94471884  0.36452860  0.82828260    -0.04800
C758        C  0.92947371  0.36394183  0.82636882     0.07400
C759        C  0.92746780  0.36431740  0.81112137     0.01200
H760        H  0.95080296  0.36461713  0.83858568     0.08900
H761        H  0.91711917  0.36408752  0.80511009     0.07900
N762        N  0.99534788  0.36821668  0.80346296    -0.35900
N763        N  0.99950711  0.36816624  0.78944904    -0.28100
C764        C  0.01433549  0.36979010  0.78892264    -0.03300
C765        C  0.01979969  0.37096869  0.80330825     0.05300
C766        C  0.00731463  0.36989235  0.81216872     0.03400
H767        H  0.02059085  0.37040455  0.77875147     0.08500
H768        H  0.00682556  0.37042190  0.82410566     0.07300
N769        N  0.85392111  0.36331275  0.90772110    -0.03200
C770        C  0.84289962  0.37319964  0.91051620    -0.00600
C771        C  0.83500859  0.36878009  0.92287316    -0.23500
C772        C  0.84142123  0.35587806  0.92788306    -0.23700
C773        C  0.85295698  0.35271355  0.91837727    -0.00700
H774        H  0.82571457  0.37445444  0.92786023     0.13000
H775        H  0.83782584  0.34930336  0.93724299     0.13100
N776        N  0.26871570  0.44511014  0.87264001    -0.27100
N777        N  0.27236656  0.43090179  0.87236904    -0.34900
C778        C  0.25998469  0.42267087  0.87119626     0.01300
C779        C  0.24780066  0.43205899  0.87072322     0.07300
C780        C  0.25385300  0.44623190  0.87168700    -0.05800
H781        H  0.25993726  0.41068776  0.87069146     0.08000
H782        H  0.24794047  0.45666087  0.87141014     0.09200
Cu783      Cu  0.29405388  0.42313169  0.87330780     0.44200
Cu784      Cu  0.28427724  0.46239015  0.87403381     0.42000
Cu785      Cu  0.32286304  0.45100639  0.87542782     0.43900
N786        N  0.31652640  0.41804069  0.87394453    -0.34400
N787        N  0.32706159  0.42819851  0.87451829    -0.28700
C788        C  0.34031813  0.42134178  0.87458009    -0.04800
C789        C  0.33808301  0.40609302  0.87408585     0.07400
C790        C  0.32279843  0.40448167  0.87371237     0.01200
H791        H  0.35080840  0.42708602  0.87515353     0.08900
H792        H  0.31663112  0.39421850  0.87314408     0.07900
N793        N  0.31603084  0.47316484  0.87652439    -0.35900
N794        N  0.30201415  0.47736947  0.87596221    -0.28100
C795        C  0.30140667  0.49227444  0.87722779    -0.03300
C796        C  0.31573544  0.49784964  0.87869312     0.05300
C797        C  0.32465094  0.48525958  0.87817678     0.03400
H798        H  0.29119414  0.49852837  0.87725452     0.08500
H799        H  0.33656884  0.48481036  0.87917111     0.07300
N800        N  0.41854571  0.32869861  0.87637187    -0.03200
C801        C  0.42061089  0.31844221  0.88732883    -0.00600
C802        C  0.43348730  0.31054602  0.88488203    -0.23500
C803        C  0.43966949  0.31608999  0.87218065    -0.23700
C804        C  0.43035528  0.32714882  0.86706845    -0.00700
H805        H  0.43809288  0.30189592  0.89182346     0.13000
H806        H  0.44981238  0.31229649  0.86706591     0.13100
N807        N  0.13829716  0.24806182  0.95670818    -0.27100
N808        N  0.14121056  0.25216802  0.94296962    -0.34900
C809        C  0.14391066  0.24000976  0.93476853     0.01300
C810        C  0.14264383  0.22748582  0.94368400     0.07300
C811        C  0.13905798  0.23314410  0.95756528    -0.05800
H812        H  0.14669277  0.24037321  0.92314738     0.08000
H813        H  0.13721505  0.22694470  0.96764377     0.09200
Cu814      Cu  0.14141532  0.27418648  0.93585637     0.44200
Cu815      Cu  0.13393469  0.26314111  0.97378116     0.42000
Cu816      Cu  0.13543606  0.30229535  0.96388577     0.43900
N817        N  0.14039869  0.29682918  0.93119926    -0.34400
N818        N  0.13830696  0.30708188  0.94142634    -0.28700
C819        C  0.13780997  0.32048521  0.93483095    -0.04800
C820        C  0.13960260  0.31866401  0.91966384     0.07400
C821        C  0.14122180  0.30344737  0.91784143     0.01200
H822        H  0.13583782  0.33075680  0.94066705     0.08900
H823        H  0.14276548  0.29754092  0.90755589     0.07900
N824        N  0.13232303  0.29465140  0.98551667    -0.35900
N825        N  0.13158823  0.28043546  0.98907024    -0.28100
C826        C  0.12961595  0.27924094  0.00379974    -0.03300
C827        C  0.12912996  0.29338327  0.00997289     0.05300
C828        C  0.13085939  0.30283591  0.99790522     0.03400
H829        H  0.12867556  0.26875367  0.00953421     0.08500
H830        H  0.13107855  0.31482316  0.99803429     0.07300
N831        N  0.13180490  0.40106719  0.84463848    -0.03200
C832        C  0.14170361  0.41243113  0.84372282    -0.00600
C833        C  0.13714422  0.42264294  0.83323495    -0.23500
C834        C  0.12417450  0.41735783  0.82732866    -0.23700
C835        C  0.12109262  0.40414522  0.83447145    -0.00700
H836        H  0.14293146  0.43259033  0.82983978     0.13000
H837        H  0.11768141  0.42256571  0.81868457     0.13100
N838        N  0.24953939  0.44494598  0.12856644    -0.27100
N839        N  0.24549584  0.43085454  0.12898943    -0.34900
C840        C  0.25759891  0.42229991  0.13067319     0.01300
C841        C  0.26995268  0.43138872  0.13123306     0.07300
C842        C  0.26437630  0.44568842  0.12983536    -0.05800
H843        H  0.25738638  0.41031877  0.13130549     0.08000
H844        H  0.27060249  0.45593184  0.13003008     0.09200
Cu845      Cu  0.22374203  0.42374394  0.12714193     0.44200
Cu846      Cu  0.23461164  0.46259716  0.12679214     0.42000
Cu847      Cu  0.19588694  0.45243065  0.12413872     0.43900
N848        N  0.20130473  0.41941277  0.12493286    -0.34400
N849        N  0.19111328  0.42987596  0.12387935    -0.28700
C850        C  0.17771780  0.42345672  0.12279067    -0.04800
C851        C  0.17950880  0.40815251  0.12317137     0.07400
C852        C  0.19468096  0.40606512  0.12452061     0.01200
H853        H  0.16746704  0.42957176  0.12178601     0.08900
H854        H  0.20054923  0.39564318  0.12539059     0.07900
N855        N  0.20327973  0.47426429  0.12446794    -0.35900
N856        N  0.21738159  0.47804110  0.12543795    -0.28100
C857        C  0.21839485  0.49294868  0.12509817    -0.03300
C858        C  0.20423679  0.49891873  0.12381475     0.05300
C859        C  0.19497783  0.48662875  0.12345934     0.03400
H860        H  0.22875475  0.49893933  0.12541626     0.08500
H861        H  0.18305422  0.48657477  0.12242717     0.07300
N862        N  0.09834300  0.33200634  0.12231687    -0.03200
C863        C  0.09570848  0.32130769  0.11201628    -0.00600
C864        C  0.08278474  0.31383492  0.11542912    -0.23500
C865        C  0.07728582  0.32008009  0.12813378    -0.23700
C866        C  0.08704967  0.33113396  0.13226281    -0.00700
H867        H  0.07787158  0.30476804  0.10932001     0.13000
H868        H  0.06749537  0.31653359  0.13405181     0.13100
N869        N  0.38541165  0.24857445  0.04467845    -0.27100
N870        N  0.38545416  0.25214921  0.05886479    -0.34900
C871        C  0.38377108  0.23967163  0.06697397     0.01300
C872        C  0.38258441  0.22756139  0.05748880     0.07300
C873        C  0.38372362  0.23378757  0.04342893    -0.05800
H874        H  0.38318102  0.23953425  0.07891915     0.08000
H875        H  0.38305652  0.22809617  0.03293603     0.09200
Cu876      Cu  0.38726020  0.27405130  0.06647266     0.44200
Cu877      Cu  0.38694143  0.26392963  0.02734150     0.42000
Cu878      Cu  0.39069137  0.30226704  0.03764577     0.43900
N879        N  0.38920046  0.29683957  0.07072822    -0.34400
N880        N  0.39073759  0.30694326  0.06020440    -0.28700
C881        C  0.39164966  0.32045746  0.06644458    -0.04800
C882        C  0.39051662  0.31893758  0.08167400     0.07400
C883        C  0.38896535  0.30375413  0.08395353     0.01200
H884        H  0.39262130  0.33069183  0.06025767     0.08900
H885        H  0.38773669  0.29811477  0.09445412     0.07900
N886        N  0.38969444  0.29525318  0.01572262    -0.35900
N887        N  0.38832392  0.28119010  0.01188279    -0.28100
C888        C  0.38831812  0.28028330  0.99699534    -0.03300
C889        C  0.38976260  0.29449107  0.99106839     0.05300
C890        C  0.39058285  0.30364950  0.00341399     0.03400
H891        H  0.38753646  0.26995206  0.99099767     0.08500
H892        H  0.39203585  0.31554913  0.00354481     0.07300
N893        N  0.38552795  0.39936875  0.15840861    -0.03200
C894        C  0.39568495  0.40335845  0.16891011    -0.00600
C895        C  0.38964298  0.41460687  0.17756235    -0.23500
C896        C  0.37580736  0.41769398  0.17212448    -0.23700
C897        C  0.37354178  0.40820000  0.16046160    -0.00700
H898        H  0.39451852  0.42004371  0.18703214     0.13000
H899        H  0.36817263  0.42595131  0.17627503     0.13100
N900        N  0.63359383  0.28219053  0.50906629    -0.27100
N901        N  0.63429377  0.29635093  0.51274552    -0.34900
C902        C  0.63326218  0.30469412  0.50041209     0.01300
C903        C  0.63184070  0.29539708  0.48823856     0.07300
C904        C  0.63210713  0.28117007  0.49427084    -0.05800
H905        H  0.63344193  0.31668314  0.50041602     0.08000
H906        H  0.63109520  0.27076857  0.48842873     0.09200
Cu907      Cu  0.63625444  0.30371896  0.53447249     0.44200
Cu908      Cu  0.63452763  0.26491727  0.52449716     0.42000
Cu909      Cu  0.63643946  0.27561186  0.56324365     0.43900
N910        N  0.63750721  0.30848201  0.55696395    -0.34400
N911        N  0.63737119  0.29824519  0.56744759    -0.28700
C912        C  0.63805889  0.30493013  0.58072667    -0.04800
C913        C  0.63867611  0.32018024  0.57857373     0.07400
C914        C  0.63831514  0.32195142  0.56330536     0.01200
H915        H  0.63817423  0.29902704  0.59115148     0.08900
H916        H  0.63838816  0.33226337  0.55717788     0.07900
N917        N  0.63691214  0.25373688  0.55606903    -0.35900
N918        N  0.63628361  0.24983076  0.54199542    -0.28100
C919        C  0.63770952  0.23500002  0.54107825    -0.03300
C920        C  0.63936755  0.22919359  0.55526431     0.05300
C921        C  0.63875354  0.24151265  0.56445229     0.03400
H922        H  0.63797458  0.22901058  0.53073439     0.08500
H923        H  0.63990361  0.24172147  0.57635718     0.07300
N924        N  0.63772238  0.39821513  0.65798563    -0.03200
C925        C  0.62775958  0.39908523  0.66928109    -0.00600
C926        C  0.63121283  0.41083632  0.67845624    -0.23500
C927        C  0.64356316  0.41748206  0.67271403    -0.23700
C928        C  0.64743960  0.40957471  0.66021657    -0.00700
H929        H  0.62524610  0.41432072  0.68822891     0.13000
H930        H  0.64930700  0.42693248  0.67734765     0.13100
N931        N  0.55266799  0.36006547  0.23897748    -0.27100
N932        N  0.56656107  0.35761593  0.23513581    -0.34900
C933        C  0.57475902  0.35570819  0.24746071     0.01300
C934        C  0.56563515  0.35700045  0.25978678     0.07300
C935        C  0.55167191  0.35976717  0.25384510    -0.05800
H936        H  0.58649497  0.35336829  0.24735187     0.08000
H937        H  0.54142633  0.36130365  0.25981353     0.09200
Cu938      Cu  0.57361054  0.35684954  0.21316869     0.44200
Cu939      Cu  0.53560633  0.36327576  0.22367237     0.42000
Cu940      Cu  0.54494916  0.35903278  0.18477384     0.43900
N941        N  0.57796143  0.35733281  0.19049429    -0.34400
N942        N  0.56760319  0.35803767  0.18016364    -0.28700
C943        C  0.57416959  0.35868163  0.16679256    -0.04800
C944        C  0.58945112  0.35841080  0.16871431     0.07400
C945        C  0.59134566  0.35750997  0.18396134     0.01200
H946        H  0.56818553  0.35958688  0.15646152     0.08900
H947        H  0.60168648  0.35707793  0.18998055     0.07900
N948        N  0.52341856  0.36271695  0.19238304    -0.35900
N949        N  0.52021709  0.36502686  0.20647878    -0.28100
C950        C  0.50578982  0.36862335  0.20761192    -0.03300
C951        C  0.49950474  0.36832135  0.19362195     0.05300
C952        C  0.51100817  0.36448524  0.18424081     0.03400
H953        H  0.50028624  0.37138234  0.21787016     0.08500
H954        H  0.51054798  0.36375573  0.17230167     0.07300
N955        N  0.67193221  0.35853269  0.09375555    -0.03200
C956        C  0.67482615  0.34800237  0.08335575    -0.00600
C957        C  0.68786963  0.35121274  0.07606789    -0.23500
C958        C  0.69326218  0.36404918  0.08210766    -0.23700
C959        C  0.68331260  0.36843534  0.09287168    -0.00700
H960        H  0.69294918  0.34483910  0.06729612     0.13000
H961        H  0.70316488  0.36984699  0.07865332     0.13100
N962        N  0.75090261  0.44683056  0.37330450    -0.27100
N963        N  0.74691684  0.43276962  0.37210613    -0.34900
C964        C  0.75908835  0.42433994  0.37030830     0.01300
C965        C  0.77146374  0.43345127  0.37043063     0.07300
C966        C  0.76577987  0.44765747  0.37240690    -0.05800
H967        H  0.75887810  0.41242373  0.36895079     0.08000
H968        H  0.77195826  0.45792546  0.37271638     0.09200
Cu969      Cu  0.72506780  0.42555894  0.37264804     0.44200
Cu970      Cu  0.73570720  0.46431957  0.37531678     0.42000
Cu971      Cu  0.69693525  0.45366435  0.37754257     0.43900
N972        N  0.70254107  0.42095827  0.37348669    -0.34400
N973        N  0.69225257  0.43122156  0.37528528    -0.28700
C974        C  0.67885162  0.42470926  0.37509708    -0.04800
C975        C  0.68075680  0.40956507  0.37313119     0.07400
C976        C  0.69596605  0.40763798  0.37217551     0.01200
H977        H  0.66850552  0.43059929  0.37642510     0.08900
H978        H  0.70187162  0.39734765  0.37045541     0.07900
N979        N  0.70413474  0.47554659  0.37779443    -0.35900
N980        N  0.71817917  0.47952738  0.37678969    -0.28100
C981        C  0.71892927  0.49446004  0.37692541    -0.03300
C982        C  0.70466179  0.50023239  0.37809249     0.05300
C983        C  0.69562937  0.48777987  0.37863770     0.03400
H984        H  0.72918932  0.50060142  0.37637883     0.08500
H985        H  0.68370470  0.48751497  0.37956818     0.07300
N986        N  0.60354066  0.32932315  0.37326880    -0.03200
C987        C  0.60232897  0.31833787  0.38360328    -0.00600
C988        C  0.59054661  0.30916517  0.38015393    -0.23500
C989        C  0.58422943  0.31464464  0.36746740    -0.23700
C990        C  0.59237431  0.32694763  0.36339651    -0.00700
H991        H  0.58668686  0.29969755  0.38643773     0.13000
H992        H  0.57478538  0.31003717  0.36170595     0.13100
N993        N  0.02004154  0.87050336  0.71013609    -0.27100
N994        N  0.02406879  0.86975874  0.69611129    -0.34900
C995        C  0.01192624  0.87014159  0.68749416     0.01300
C996        C  0.99948614  0.87117938  0.69644294     0.07300
C997        C  0.00515265  0.87138634  0.71078523    -0.05800
H998        H  0.01224371  0.86970718  0.67554877     0.08000
H999        H  0.99897298  0.87229677  0.72097980     0.09200
Cu1000     Cu  0.04593236  0.86836112  0.68916750     0.44200
Cu1001     Cu  0.03531239  0.87007502  0.72755421     0.42000
Cu1002     Cu  0.07440978  0.86623597  0.71708729     0.43900
N1003       N  0.06835908  0.86691216  0.68432778    -0.34400
N1004       N  0.07886142  0.86616616  0.69448520    -0.28700
C1005       C  0.09209838  0.86521872  0.68769860    -0.04800
C1006       C  0.08985132  0.86532905  0.67247044     0.07400
C1007       C  0.07459808  0.86644733  0.67084247     0.01200
H1008       H  0.10254180  0.86432936  0.69349245     0.08900
H1009       H  0.06837944  0.86694496  0.66062667     0.07900
N1010       N  0.06683315  0.86630532  0.73884223    -0.35900
N1011       N  0.05278228  0.86790941  0.74263064    -0.28100
C1012       C  0.05172704  0.86713466  0.75746864    -0.03300
C1013       C  0.06575944  0.86485921  0.76339295     0.05300
C1014       C  0.07502909  0.86440086  0.75116318     0.03400
H1015       H  0.04137719  0.86772194  0.76343240     0.08500
H1016       H  0.08687667  0.86268537  0.75113488     0.07300
N1017       N  0.16749444  0.86321536  0.59281443    -0.03200
C1018       C  0.17821729  0.87375421  0.59149278    -0.00600
C1019       C  0.18723281  0.87064802  0.57957330    -0.23500
C1020       C  0.18190914  0.85790459  0.57324790    -0.23700
C1021       C  0.16980387  0.85345396  0.58152021    -0.00700
H1022       H  0.19654375  0.87713681  0.57571783     0.13000
H1023       H  0.18660811  0.85229613  0.56377535     0.13100
N1024       N  0.46918426  0.11756502  0.24068834    -0.27100
N1025       N  0.45504463  0.11787542  0.23692685    -0.34900
C1026       C  0.44681955  0.12024362  0.24909598     0.01300
C1027       C  0.45615884  0.12155863  0.26125099     0.07300
C1028       C  0.47029627  0.11974229  0.25539207    -0.05800
H1029       H  0.43489677  0.12121653  0.24893895     0.08000
H1030       H  0.48071271  0.12021246  0.26126928     0.09200
Cu1031     Cu  0.44741828  0.11593688  0.21530070     0.44200
Cu1032     Cu  0.48636982  0.11479540  0.22546433     0.42000
Cu1033     Cu  0.47531702  0.11319573  0.18683110     0.43900
N1034       N  0.44250300  0.11492555  0.19284525    -0.34400
N1035       N  0.45272270  0.11408768  0.18244340    -0.28700
C1036       C  0.44605127  0.11375729  0.16913429    -0.04800
C1037       C  0.43081250  0.11440441  0.17116516     0.07400
C1038       C  0.42905003  0.11513984  0.18642596     0.01200
H1039       H  0.45196917  0.11300802  0.15877773     0.08900
H1040       H  0.41878678  0.11587085  0.19251519     0.07900
N1041       N  0.49717484  0.11155630  0.19393329    -0.35900
N1042       N  0.50124915  0.11209884  0.20797413    -0.28100
C1043       C  0.51604604  0.11039312  0.20877504    -0.03300
C1044       C  0.52163842  0.10865904  0.19454187     0.05300
C1045       C  0.50923995  0.10947608  0.18546259     0.03400
H1046       H  0.52219145  0.11018655  0.21904568     0.08500
H1047       H  0.50890887  0.10857931  0.17354100     0.07300
N1048       N  0.34956356  0.11506631  0.09502733    -0.03200
C1049       C  0.34704782  0.12497395  0.08391090    -0.00600
C1050       C  0.33434254  0.12108380  0.07628172    -0.23500
C1051       C  0.32885137  0.10850075  0.08291373    -0.23700
C1052       C  0.33841679  0.10493993  0.09433404    -0.00700
H1053       H  0.32949110  0.12686783  0.06695564     0.13000
H1054       H  0.31917095  0.10233403  0.07946367     0.13100
N1055       N  0.30472169  0.99723736  0.37181631    -0.27100
N1056       N  0.31887116  0.00103557  0.37164178    -0.34900
C1057       C  0.32716521  0.98879338  0.37384856     0.01300
C1058       C  0.31787610  0.97660412  0.37554999     0.07300
C1059       C  0.30370731  0.98250950  0.37414069    -0.05800
H1060       H  0.33911449  0.98890583  0.37448877     0.08000
H1061       H  0.29330845  0.97664817  0.37499356     0.09200
Cu1062     Cu  0.32655754  0.02282970  0.36932977     0.44200
Cu1063     Cu  0.28704875  0.01212044  0.36960215     0.42000
Cu1064     Cu  0.29759590  0.05033610  0.36700986     0.43900
N1065       N  0.33071927  0.04565444  0.36833186    -0.34400
N1066       N  0.31995872  0.05556668  0.36762954    -0.28700
C1067       C  0.32583692  0.06925301  0.36772662    -0.04800
C1068       C  0.34113224  0.06808070  0.36854481     0.07400
C1069       C  0.34380480  0.05286604  0.36885097     0.01200
H1070       H  0.31933378  0.07931379  0.36725947     0.08900
H1071       H  0.35443542  0.04741298  0.36974647     0.07900
N1072       N  0.27569286  0.04340820  0.36662688    -0.35900
N1073       N  0.27164909  0.02936531  0.36755795    -0.28100
C1074       C  0.25675659  0.02862590  0.36671800    -0.03300
C1075       C  0.25109766  0.04294069  0.36515529     0.05300
C1076       C  0.26357040  0.05195686  0.36517448     0.03400
H1077       H  0.25058140  0.01836229  0.36700825     0.08500
H1078       H  0.26394274  0.06388957  0.36407086     0.07300
N1079       N  0.41587602  0.15084181  0.37350670    -0.03200
C1080       C  0.42695497  0.15384275  0.36372050    -0.00600
C1081       C  0.43480183  0.16621250  0.36821452    -0.23500
C1082       C  0.42842827  0.17104858  0.38108377    -0.23700
C1083       C  0.41693589  0.16144179  0.38418207    -0.00700
H1084       H  0.44418468  0.17120665  0.36268521     0.13000
H1085       H  0.43211901  0.18028193  0.38777715     0.13100
N1086       N  0.27283426  0.53073436  0.62827545    -0.27100
N1087       N  0.27650350  0.54493076  0.62837288    -0.34900
C1088       C  0.26412518  0.55317258  0.62974776     0.01300
C1089       C  0.25195295  0.54376735  0.63057585     0.07300
C1090       C  0.25803608  0.52960669  0.62958578    -0.05800
H1091       H  0.26409799  0.56515066  0.63029575     0.08000
H1092       H  0.25222443  0.51913771  0.62993620     0.09200
Cu1093     Cu  0.29826993  0.55247184  0.62702970     0.44200
Cu1094     Cu  0.28805822  0.51328008  0.62666457     0.42000
Cu1095     Cu  0.32645329  0.52387678  0.62416182     0.43900
N1096       N  0.32088176  0.55688847  0.62591122    -0.34400
N1097       N  0.33110447  0.54644989  0.62488517    -0.28700
C1098       C  0.34454159  0.55286343  0.62453881    -0.04800
C1099       C  0.34279095  0.56814806  0.62538741     0.07400
C1100       C  0.32756958  0.57022904  0.62623408     0.01200
H1101       H  0.35480316  0.54675368  0.62365661     0.08900
H1102       H  0.32170962  0.58064156  0.62718794     0.07900
N1103       N  0.31939714  0.50193077  0.62387896    -0.35900
N1104       N  0.30536245  0.49793085  0.62480801    -0.28100
C1105       C  0.30455491  0.48301563  0.62399487    -0.03300
C1106       C  0.31880049  0.47727765  0.62246666     0.05300
C1107       C  0.32786170  0.48973317  0.62245828     0.03400
H1108       H  0.29428275  0.47687840  0.62430077     0.08500
H1109       H  0.33975409  0.49004200  0.62120410     0.07300
N1110       N  0.42076259  0.64771674  0.62510017    -0.03200
C1111       C  0.42306063  0.65845031  0.61475019    -0.00600
C1112       C  0.43505039  0.66712966  0.61877645    -0.23500
C1113       C  0.44032259  0.66158096  0.63190821    -0.23700
C1114       C  0.43135497  0.64974973  0.63559020    -0.00700
H1115       H  0.43968755  0.67634417  0.61264822     0.13000
H1116       H  0.44956183  0.66586123  0.63822646     0.13100
N1117       N  0.39281275  0.19679572  0.51034896    -0.27100
N1118       N  0.39419825  0.18280232  0.51450740    -0.34900
C1119       C  0.39488258  0.17414459  0.50240702     0.01300
C1120       C  0.39384068  0.18305160  0.48988553     0.07300
C1121       C  0.39254266  0.19738380  0.49545523    -0.05800
H1122       H  0.39602141  0.16221184  0.50279140     0.08000
H1123       H  0.39168028  0.20757971  0.48919873     0.09200
Cu1124     Cu  0.39485521  0.17606377  0.53649841     0.44200
Cu1125     Cu  0.39152660  0.21445845  0.52527634     0.42000
Cu1126     Cu  0.39218127  0.20481288  0.56438927     0.43900
N1127       N  0.39392373  0.17182956  0.55908234    -0.34400
N1128       N  0.39295955  0.18227511  0.56927426    -0.28700
C1129       C  0.39210571  0.17582350  0.58268956    -0.04800
C1130       C  0.39249788  0.16052975  0.58089622     0.07400
C1131       C  0.39367826  0.15847341  0.56572942     0.01200
H1132       H  0.39094497  0.18187674  0.59294111     0.08900
H1133       H  0.39427621  0.14805084  0.55986051     0.07900
N1134       N  0.39059215  0.22647189  0.55658514    -0.35900
N1135       N  0.39033123  0.23001376  0.54238742    -0.28100
C1136       C  0.38876750  0.24481992  0.54112592    -0.03300
C1137       C  0.38796283  0.25098888  0.55521157     0.05300
C1138       C  0.38918389  0.23890327  0.56469903     0.03400
H1139       H  0.38792441  0.25056845  0.53065064     0.08500
H1140       H  0.38889169  0.23901519  0.57665418     0.07300
N1141       N  0.38584827  0.07982126  0.65744448    -0.03200
C1142       C  0.39608765  0.07733850  0.66822300    -0.00600
C1143       C  0.39222209  0.06511229  0.67657798    -0.23500
C1144       C  0.37927292  0.05975346  0.67070452    -0.23700
C1145       C  0.37550315  0.06893758  0.65898757    -0.00700
H1146       H  0.39827633  0.06048403  0.68584334     0.13000
H1147       H  0.37308615  0.05030658  0.67475568     0.13100
N1148       N  0.47141538  0.35825678  0.74186970    -0.27100
N1149       N  0.45736129  0.35713581  0.73787729    -0.34900
C1150       C  0.44907598  0.35460448  0.75003441     0.01300
C1151       C  0.45825595  0.35413545  0.76241127     0.07300
C1152       C  0.47236910  0.35650646  0.75666932    -0.05800
H1153       H  0.43717936  0.35333499  0.74982037     0.08000
H1154       H  0.48267255  0.35686661  0.76275438     0.09200
Cu1155     Cu  0.44991621  0.35927902  0.71598231     0.44200
Cu1156     Cu  0.48886908  0.36208396  0.72697222     0.42000
Cu1157     Cu  0.47849339  0.36526150  0.68847000     0.43900
N1158       N  0.44558076  0.36179113  0.69331208    -0.34400
N1159       N  0.45612045  0.36377742  0.68336948    -0.28700
C1160       C  0.44996987  0.36471317  0.66983372    -0.04800
C1161       C  0.43474047  0.36331301  0.67117952     0.07400
C1162       C  0.43239292  0.36150996  0.68629397     0.01200
H1163       H  0.45619746  0.36643033  0.65976500     0.08900
H1164       H  0.42189632  0.35987223  0.69179812     0.07900
N1165       N  0.50025294  0.36672958  0.69575909    -0.35900
N1166       N  0.50416297  0.36561949  0.70981132    -0.28100
C1167       C  0.51899673  0.36701181  0.71075335    -0.03300
C1168       C  0.52477976  0.36908067  0.69659029     0.05300
C1169       C  0.51242118  0.36884576  0.68742854     0.03400
H1170       H  0.52506431  0.36652934  0.72105782     0.08500
H1171       H  0.51218293  0.37008248  0.67553235     0.07300
N1172       N  0.35652335  0.36410823  0.59159327    -0.03200
C1173       C  0.35457008  0.35397569  0.58057808    -0.00600
C1174       C  0.34217214  0.35745320  0.57230884    -0.23500
C1175       C  0.33619452  0.37001549  0.57836647    -0.23700
C1176       C  0.34514114  0.37399015  0.59015210    -0.00700
H1177       H  0.33780623  0.35134976  0.56297023     0.13000
H1178       H  0.32649003  0.37582820  0.57436960     0.13100
N1179       N  0.13999562  0.72803622  0.54116935    -0.27100
N1180       N  0.13929485  0.72417225  0.55526285    -0.34900
C1181       C  0.14062757  0.73641441  0.56367458     0.01300
C1182       C  0.14224797  0.74872494  0.55450634     0.07300
C1183       C  0.14179926  0.74285546  0.54026874    -0.05800
H1184       H  0.14047442  0.73625237  0.57563041     0.08000
H1185       H  0.14269180  0.74884987  0.52993909     0.09200
Cu1186     Cu  0.13663016  0.70231801  0.56247158     0.44200
Cu1187     Cu  0.13819926  0.71282508  0.52383325     0.42000
Cu1188     Cu  0.13267391  0.67410306  0.53416886     0.43900
N1189       N  0.13447085  0.67971573  0.56706944    -0.34400
N1190       N  0.13309335  0.66942364  0.55676567    -0.28700
C1191       C  0.13241789  0.65600993  0.56332644    -0.04800
C1192       C  0.13342128  0.65784900  0.57857064     0.07400
C1193       C  0.13468716  0.67311017  0.58044314     0.01200
H1194       H  0.13138627  0.64568992  0.55734149     0.08900
H1195       H  0.13599187  0.67905799  0.59073568     0.07900
N1196       N  0.13286421  0.68167470  0.51235849    -0.35900
N1197       N  0.13499441  0.69569355  0.50861094    -0.28100
C1198       C  0.13415527  0.69691112  0.49378432    -0.03300
C1199       C  0.13131690  0.68299198  0.48777942     0.05300
C1200       C  0.13060068  0.67363627  0.50001162     0.03400
H1201       H  0.13527130  0.70730129  0.48790633     0.08500
H1202       H  0.12837497  0.66185703  0.50005630     0.07300
N1203       N  0.13886422  0.58167151  0.66011466    -0.03200
C1204       C  0.14936992  0.57098918  0.66213990    -0.00600
C1205       C  0.14684848  0.56345711  0.67522614    -0.23500
C1206       C  0.13451084  0.56961751  0.68151157    -0.23700
C1207       C  0.12969682  0.58071973  0.67207038    -0.00700
H1208       H  0.15340634  0.55449727  0.67980217     0.13000
H1209       H  0.12934984  0.56607111  0.69172302     0.13100
N1210       N  0.88183763  0.73020869  0.03958784    -0.27100
N1211       N  0.88210362  0.72628744  0.05368699    -0.34900
C1212       C  0.88145735  0.73855530  0.06216166     0.01300
C1213       C  0.88074186  0.75095245  0.05302548     0.07300
C1214       C  0.88101157  0.74510776  0.03875993    -0.05800
H1215       H  0.88135537  0.73836132  0.07412075     0.08000
H1216       H  0.88039714  0.75116300  0.02844556     0.09200
Cu1217     Cu  0.88284362  0.70435235  0.06079013     0.44200
Cu1218     Cu  0.88241462  0.71502354  0.02199774     0.42000
Cu1219     Cu  0.88407355  0.67614274  0.03228986     0.43900
N1220       N  0.88299412  0.68170305  0.06513901    -0.34400
N1221       N  0.88333839  0.67140911  0.05475615    -0.28700
C1222       C  0.88320424  0.65794528  0.06120876    -0.04800
C1223       C  0.88280300  0.65980679  0.07644015     0.07400
C1224       C  0.88267670  0.67506397  0.07847141     0.01200
H1225       H  0.88358788  0.64758904  0.05520130     0.08900
H1226       H  0.88225594  0.68098375  0.08885552     0.07900
N1227       N  0.88456598  0.68352615  0.01053141    -0.35900
N1228       N  0.88384730  0.69764333  0.00662183    -0.28100
C1229       C  0.88467028  0.69852411  0.99174244    -0.03300
C1230       C  0.88601844  0.68426122  0.98595903     0.05300
C1231       C  0.88588880  0.67510366  0.99833625     0.03400
H1232       H  0.88458690  0.70885944  0.98565776     0.08500
H1233       H  0.88682238  0.66315277  0.99859330     0.07300
N1234       N  0.88343349  0.58309437  0.15729177    -0.03200
C1235       C  0.89294295  0.58197693  0.16900012    -0.00600
C1236       C  0.88826531  0.57097000  0.17857149    -0.23500
C1237       C  0.87562676  0.56502378  0.17265252    -0.23700
C1238       C  0.87278299  0.57260941  0.15964911    -0.00700
H1239       H  0.89366059  0.56743650  0.18868249     0.13000
H1240       H  0.86905833  0.55620898  0.17745147     0.13100
N1241       N  0.71878999  0.49548972  0.11958420    -0.27100
N1242       N  0.70462705  0.49914531  0.12040445    -0.34900
C1243       C  0.69633369  0.48677695  0.11946922     0.01300
C1244       C  0.70561727  0.47459749  0.11796454     0.07300
C1245       C  0.71980628  0.48064249  0.11809621    -0.05800
H1246       H  0.68437191  0.48674676  0.11986000     0.08000
H1247       H  0.73017101  0.47474624  0.11701009     0.09200
Cu1248     Cu  0.69681649  0.52076647  0.12246082     0.44200
Cu1249     Cu  0.73624910  0.51087473  0.12060980     0.42000
Cu1250     Cu  0.72470166  0.54879984  0.12654420     0.43900
N1251       N  0.69196809  0.54326853  0.12409308    -0.34400
N1252       N  0.70230328  0.55350514  0.12563006    -0.28700
C1253       C  0.69588430  0.56694320  0.12617532    -0.04800
C1254       C  0.68068643  0.56516778  0.12494856     0.07400
C1255       C  0.67863882  0.54994612  0.12365149     0.01200
H1256       H  0.70191324  0.57721547  0.12750453     0.08900
H1257       H  0.66826421  0.54411625  0.12232298     0.07900
N1258       N  0.74667038  0.54237568  0.12557300    -0.35900
N1259       N  0.75111942  0.52861808  0.12320405    -0.28100
C1260       C  0.76606001  0.52839103  0.12336015    -0.03300
C1261       C  0.77126348  0.54271874  0.12596296     0.05300
C1262       C  0.75853090  0.55120654  0.12729232     0.03400
H1263       H  0.77260707  0.51846353  0.12186722     0.08500
H1264       H  0.75782914  0.56292791  0.12970390     0.07300
N1265       N  0.60548700  0.64733063  0.12656840    -0.03200
C1266       C  0.60438247  0.65839980  0.11632754    -0.00600
C1267       C  0.59314662  0.66806567  0.12017103    -0.23500
C1268       C  0.58705112  0.66279447  0.13303290    -0.23700
C1269       C  0.59477683  0.65009024  0.13681128    -0.00700
H1270       H  0.58950616  0.67773934  0.11405451     0.13000
H1271       H  0.57802380  0.66781112  0.13909478     0.13100
N1272       N  0.55116460  0.61899970  0.25990518    -0.27100
N1273       N  0.56497790  0.62081332  0.26437307    -0.34900
C1274       C  0.57385931  0.62208282  0.25249564     0.01300
C1275       C  0.56529719  0.62105914  0.23977377     0.07300
C1276       C  0.55092075  0.61911767  0.24499516    -0.05800
H1277       H  0.58567823  0.62385571  0.25316452     0.08000
H1278       H  0.54095260  0.61785991  0.23848808     0.09200
Cu1279     Cu  0.57119537  0.62142986  0.28643788     0.44200
Cu1280     Cu  0.53334390  0.61631964  0.27452545     0.42000
Cu1281     Cu  0.54296236  0.61464756  0.31382465     0.43900
N1282       N  0.57536391  0.62027007  0.30895105    -0.34400
N1283       N  0.56514293  0.61772967  0.31908622    -0.28700
C1284       C  0.57170600  0.61689142  0.33246346    -0.04800
C1285       C  0.58681926  0.61887617  0.33060206     0.07400
C1286       C  0.58866061  0.62105678  0.31554044     0.01200
H1287       H  0.56596447  0.61443143  0.34267330     0.08900
H1288       H  0.59894626  0.62282555  0.30968813     0.07900
N1289       N  0.52155338  0.61230276  0.30570486    -0.35900
N1290       N  0.51790604  0.61305935  0.29154950    -0.28100
C1291       C  0.50313546  0.61123369  0.29031330    -0.03300
C1292       C  0.49713915  0.60920505  0.30437246     0.05300
C1293       C  0.50928473  0.60995127  0.31378377     0.03400
H1294       H  0.49726589  0.61131823  0.27988272     0.08500
H1295       H  0.50933203  0.60888623  0.32569565     0.07300
N1296       N  0.66708051  0.61338175  0.40722605    -0.03200
C1297       C  0.67783444  0.60293882  0.40900828    -0.00600
C1298       C  0.68672284  0.60649089  0.42093735    -0.23500
C1299       C  0.68132404  0.61948318  0.42671392    -0.23700
C1300       C  0.66935427  0.62360451  0.41806901    -0.00700
H1301       H  0.69616894  0.60029353  0.42497984     0.13000
H1302       H  0.68594605  0.62553861  0.43595763     0.13100
N1303       N  0.21845781  0.49876793  0.37831892    -0.27100
N1304       N  0.20433739  0.50265244  0.37811534    -0.34900
C1305       C  0.19591858  0.49037914  0.37881833     0.01300
C1306       C  0.20507611  0.47802801  0.37951784     0.07300
C1307       C  0.21933386  0.48385393  0.37913235    -0.05800
H1308       H  0.18395522  0.49055360  0.37894298     0.08000
H1309       H  0.22963400  0.47777017  0.37980084     0.09200
Cu1310     Cu  0.19667764  0.52440420  0.37723806     0.44200
Cu1311     Cu  0.23591969  0.51402004  0.37801912     0.42000
Cu1312     Cu  0.22477158  0.55254863  0.37659908     0.43900
N1313       N  0.19192355  0.54693374  0.37572722    -0.34400
N1314       N  0.20235546  0.55717897  0.37545054    -0.28700
C1315       C  0.19603389  0.57061091  0.37423728    -0.04800
C1316       C  0.18077803  0.56886337  0.37373005     0.07400
C1317       C  0.17861737  0.55361489  0.37471845     0.01200
H1318       H  0.20222039  0.58085620  0.37370862     0.08900
H1319       H  0.16818233  0.54774845  0.37482424     0.07900
N1320       N  0.24667179  0.54578606  0.37699455    -0.35900
N1321       N  0.25085716  0.53175074  0.37745682    -0.28100
C1322       C  0.26573867  0.53119272  0.37676971    -0.03300
C1323       C  0.27125060  0.54559796  0.37578256     0.05300
C1324       C  0.25870900  0.55450192  0.37599806     0.03400
H1325       H  0.27197646  0.52096364  0.37654314     0.08500
H1326       H  0.25822012  0.56644164  0.37498829     0.07300
N1327       N  0.10139317  0.64696806  0.37454331    -0.03200
C1328       C  0.09964354  0.65830122  0.38431437    -0.00600
C1329       C  0.08727459  0.66658315  0.38068367    -0.23500
C1330       C  0.08111855  0.66013225  0.36838785    -0.23700
C1331       C  0.08998843  0.64818507  0.36477502    -0.00700
H1332       H  0.08298004  0.67609323  0.38657974     0.13000
H1333       H  0.07134276  0.66389725  0.36254594     0.13100
N1334       N  0.39282176  0.69472539  0.48897734    -0.27100
N1335       N  0.39483631  0.68076408  0.48502619    -0.34900
C1336       C  0.39669229  0.67239600  0.49724530     0.01300
C1337       C  0.39583719  0.68149849  0.50959042     0.07300
C1338       C  0.39337145  0.69559986  0.50381835    -0.05800
H1339       H  0.39868482  0.66056901  0.49706288     0.08000
H1340       H  0.39201090  0.70583063  0.50988130     0.09200
Cu1341     Cu  0.39489205  0.67372684  0.46319372     0.44200
Cu1342     Cu  0.38932855  0.71211712  0.47409485     0.42000
Cu1343     Cu  0.38906211  0.70236822  0.43543606     0.43900
N1344       N  0.39333223  0.66956959  0.44068641    -0.34400
N1345       N  0.39123696  0.67997312  0.43058259    -0.28700
C1346       C  0.38992075  0.67353410  0.41723720    -0.04800
C1347       C  0.39118114  0.65827485  0.41896911     0.07400
C1348       C  0.39340185  0.65624351  0.43404601     0.01200
H1349       H  0.38772400  0.67958026  0.40712898     0.08900
H1350       H  0.39469744  0.64586305  0.43991321     0.07900
N1351       N  0.38572588  0.72384418  0.44299821    -0.35900
N1352       N  0.38574717  0.72747542  0.45714799    -0.28100
C1353       C  0.38297302  0.74210686  0.45834728    -0.03300
C1354       C  0.38109188  0.74805725  0.44423815     0.05300
C1355       C  0.38294010  0.73602368  0.43483058     0.03400
H1356       H  0.38227553  0.74788555  0.46879020     0.08500
H1357       H  0.38227172  0.73599553  0.42289045     0.07300
N1358       N  0.38249280  0.58161806  0.33905915    -0.03200
C1359       C  0.39222926  0.57980784  0.32773234    -0.00600
C1360       C  0.38773794  0.56815225  0.31885804    -0.23500
C1361       C  0.37497880  0.56255035  0.32497445    -0.23700
C1362       C  0.37194107  0.57102192  0.33733596    -0.00700
H1363       H  0.39340885  0.56384255  0.30924077     0.13000
H1364       H  0.36855873  0.55332489  0.32080261     0.13100
N1365       N  0.12936382  0.19646496  0.48843527    -0.27100
N1366       N  0.12865584  0.18225522  0.48490255    -0.34900
C1367       C  0.12661504  0.17420158  0.49733608     0.01300
C1368       C  0.12605115  0.18374503  0.50939698     0.07300
C1369       C  0.12783438  0.19778761  0.50320367    -0.05800
H1370       H  0.12580140  0.16223523  0.49755053     0.08000
H1371       H  0.12794781  0.20828573  0.50896576     0.09200
Cu1372     Cu  0.13065998  0.17457211  0.46319657     0.44200
Cu1373     Cu  0.13250947  0.21352846  0.47293440     0.42000
Cu1374     Cu  0.13645784  0.20257813  0.43455463     0.43900
N1375       N  0.13268593  0.16977789  0.44067635    -0.34400
N1376       N  0.13467122  0.17993854  0.43029277    -0.28700
C1377       C  0.13538989  0.17319787  0.41702455    -0.04800
C1378       C  0.13383938  0.15800294  0.41906861     0.07400
C1379       C  0.13215274  0.15631646  0.43426420     0.01200
H1380       H  0.13712560  0.17898522  0.40668019     0.08900
H1381       H  0.13053111  0.14607023  0.44028547     0.07900
N1382       N  0.13765517  0.22453557  0.44161367    -0.35900
N1383       N  0.13609223  0.22858145  0.45557615    -0.28100
C1384       C  0.13746444  0.24344368  0.45643131    -0.03300
C1385       C  0.14006384  0.24912155  0.44233016     0.05300
C1386       C  0.14010197  0.23668568  0.43326078     0.03400
H1387       H  0.13685125  0.24959449  0.46666840     0.08500
H1388       H  0.14177329  0.23640290  0.42142107     0.07300
N1389       N  0.13619498  0.07976597  0.33970763    -0.03200
C1390       C  0.12597717  0.07796669  0.32872192    -0.00600
C1391       C  0.12964213  0.06586753  0.32009302    -0.23500
C1392       C  0.14238895  0.05995367  0.32588273    -0.23700
C1393       C  0.14629349  0.06866268  0.33783123    -0.00700
H1394       H  0.12357742  0.06169152  0.31064299     0.13000
H1395       H  0.14842412  0.05053753  0.32156306     0.13100
N1396       N  0.05244051  0.35831720  0.25899947    -0.27100
N1397       N  0.06657213  0.35809218  0.26284548    -0.34900
C1398       C  0.07492093  0.35698171  0.25054603     0.01300
C1399       C  0.06567984  0.35650051  0.23823393     0.07300
C1400       C  0.05147814  0.35735786  0.24414782    -0.05800
H1401       H  0.08688245  0.35661319  0.25063875     0.08000
H1402       H  0.04111546  0.35721104  0.23815463     0.09200
Cu1403     Cu  0.07400159  0.35930542  0.28471210     0.44200
Cu1404     Cu  0.03494320  0.36022039  0.27411024     0.42000
Cu1405     Cu  0.04542128  0.36221696  0.31268756     0.43900
N1406       N  0.07841078  0.36039348  0.30737901    -0.34400
N1407       N  0.06792888  0.36116994  0.31754425    -0.28700
C1408       C  0.07426719  0.36167867  0.33102053    -0.04800
C1409       C  0.08952825  0.36131044  0.32934999     0.07400
C1410       C  0.09171066  0.36049409  0.31415486     0.01200
H1411       H  0.06816447  0.36260537  0.34126385     0.08900
H1412       H  0.10218955  0.35994317  0.30840585     0.07900
N1413       N  0.02365548  0.36426093  0.30535931    -0.35900
N1414       N  0.01971876  0.36348424  0.29129518    -0.28100
C1415       C  0.00500633  0.36584568  0.29027989    -0.03300
C1416       C  0.99933024  0.36830527  0.30439855     0.05300
C1417       C  0.01161141  0.36715357  0.31362348     0.03400
H1418       H  0.99900465  0.36609890  0.27992731     0.08500
H1419       H  0.01192888  0.36857045  0.32549210     0.07300
N1420       N  0.16976171  0.36340660  0.40664045    -0.03200
C1421       C  0.17249784  0.35235439  0.41656639    -0.00600
C1422       C  0.18558720  0.35495411  0.42401645    -0.23500
C1423       C  0.19122444  0.36797682  0.41851735    -0.23700
C1424       C  0.18133813  0.37301649  0.40794135    -0.00700
H1425       H  0.19060378  0.34798203  0.43240095     0.13000
H1426       H  0.20131866  0.37336874  0.42207693     0.13100
N1427       N  0.87988607  0.25063798  0.45461489    -0.27100
N1428       N  0.88024201  0.25464584  0.44053246    -0.34900
C1429       C  0.87809974  0.24256594  0.43202049     0.01300
C1430       C  0.87632725  0.23023105  0.44110246     0.07300
C1431       C  0.87754903  0.23588873  0.45538024    -0.05800
H1432       H  0.87795216  0.24279474  0.42005936     0.08000
H1433       H  0.87665644  0.22979625  0.46565535     0.09200
Cu1434     Cu  0.88355427  0.27644605  0.43342923     0.44200
Cu1435     Cu  0.88249869  0.26545330  0.47231558     0.42000
Cu1436     Cu  0.88741935  0.30398614  0.46235168     0.43900
N1437       N  0.88651111  0.29904831  0.42934735    -0.34400
N1438       N  0.88778883  0.30903370  0.43995683    -0.28700
C1439       C  0.88916762  0.32256671  0.43383277    -0.04800
C1440       C  0.88875345  0.32114653  0.41855127     0.07400
C1441       C  0.88707774  0.30600754  0.41615872     0.01200
H1442       H  0.89035647  0.33267627  0.44014001     0.08900
H1443       H  0.88600751  0.30042941  0.40563082     0.07900
N1444       N  0.88737162  0.29650927  0.48406767    -0.35900
N1445       N  0.88562534  0.28245132  0.48783723    -0.28100
C1446       C  0.88670685  0.28131695  0.50267584    -0.03300
C1447       C  0.88930411  0.29535154  0.50859007     0.05300
C1448       C  0.88960196  0.30465603  0.49632745     0.03400
H1449       H  0.88596808  0.27093387  0.50863078     0.08500
H1450       H  0.89153616  0.31648683  0.49618398     0.07300
N1451       N  0.88580810  0.39988569  0.33978754    -0.03200
C1452       C  0.87461309  0.40977135  0.33774316    -0.00600
C1453       C  0.87697690  0.41797026  0.32505336    -0.23500
C1454       C  0.89002615  0.41297313  0.31902453    -0.23700
C1455       C  0.89531312  0.40191047  0.32827434    -0.00700
H1456       H  0.86984107  0.42650706  0.32054345     0.13000
H1457       H  0.89524377  0.41717170  0.30909302     0.13100
N1458       N  0.00141581  0.11393983  0.29022810    -0.27100
N1459       N  0.99794146  0.11383290  0.30444690    -0.34900
C1460       C  0.01035036  0.11166720  0.31248027     0.01300
C1461       C  0.02235998  0.11029261  0.30296100     0.07300
C1462       C  0.01614332  0.11183310  0.28891454    -0.05800
H1463       H  0.01050818  0.11099603  0.32442262     0.08000
H1464       H  0.02182552  0.11122390  0.27841592     0.09200
Cu1465     Cu  0.97632130  0.11585008  0.31249331     0.44200
Cu1466     Cu  0.98587874  0.11658239  0.27304823     0.42000
Cu1467     Cu  0.94759792  0.11745951  0.28447509     0.43900
N1468       N  0.95370263  0.11626082  0.31743680    -0.34400
N1469       N  0.94331766  0.11650794  0.30711899    -0.28700
C1470       C  0.92995356  0.11612506  0.31365568    -0.04800
C1471       C  0.93186805  0.11562712  0.32890735     0.07400
C1472       C  0.94715403  0.11578589  0.33084301     0.01200
H1473       H  0.91959979  0.11627499  0.30764347     0.08900
H1474       H  0.95312787  0.11528278  0.34120879     0.07900
N1475       N  0.95416311  0.11959806  0.26246986    -0.35900
N1476       N  0.96814536  0.11940730  0.25818875    -0.28100
C1477       C  0.96861399  0.12154043  0.24340890    -0.03300
C1478       C  0.95421357  0.12316205  0.23803718     0.05300
C1479       C  0.94541476  0.12183069  0.25058585     0.03400
H1480       H  0.97876218  0.12196751  0.23710049     0.08500
H1481       H  0.93349113  0.12264138  0.25117071     0.07300
N1482       N  0.85279351  0.11328308  0.40743165    -0.03200
C1483       C  0.85055738  0.12407342  0.41777731    -0.00600
C1484       C  0.83883276  0.12030804  0.42683777    -0.23500
C1485       C  0.83353150  0.10695413  0.42193559    -0.23700
C1486       C  0.84221489  0.10278980  0.41006681    -0.00700
H1487       H  0.83434373  0.12681436  0.43583110     0.13000
H1488       H  0.82431412  0.10086143  0.42657999     0.13100
C1489       C  0.92005601  0.11477738  0.34044435    -0.01100
C1490       C  0.90546786  0.11121380  0.33646318    -0.09100
C1491       C  0.89422045  0.11045929  0.34703895    -0.17900
C1492       C  0.89709352  0.11333031  0.36214253     0.04500
C1493       C  0.91187938  0.11692454  0.36621579     0.18700
C1494       C  0.92315601  0.11753632  0.35543662    -0.19300
C1495       C  0.91529602  0.12001883  0.38101512    -0.20600
C1496       C  0.90432707  0.11982462  0.39182819    -0.19100
C1497       C  0.88964910  0.11642115  0.38817131     0.20100
C1498       C  0.88582965  0.11293577  0.37330379     0.02200
C1499       C  0.87088037  0.10929418  0.37028039    -0.13900
C1500       C  0.86019703  0.10938331  0.38145805    -0.11600
C1501       C  0.86396152  0.11307413  0.39601115     0.01700
C1502       C  0.87874086  0.11652288  0.39930051    -0.23800
H1503       H  0.90263673  0.10885304  0.32507963     0.09700
H1504       H  0.88334886  0.10768255  0.34298481     0.13300
H1505       H  0.93432209  0.12039923  0.35875186     0.12000
H1506       H  0.92652961  0.12274263  0.38424087     0.13200
H1507       H  0.90734611  0.12240905  0.40314438     0.12200
H1508       H  0.86705487  0.10635990  0.35937653     0.09300
H1509       H  0.84883812  0.10676756  0.37866997     0.12600
H1510       H  0.88175147  0.11916862  0.41060558     0.14500
C1511       C  0.87367967  0.21447230  0.43658902    -0.01100
C1512       C  0.86970108  0.21082616  0.42200030    -0.09100
C1513       C  0.86708268  0.19605541  0.41782534    -0.17900
C1514       C  0.86836079  0.18429685  0.42815330     0.04500
C1515       C  0.87241262  0.18805424  0.44290394     0.18700
C1516       C  0.87505001  0.20290571  0.44691777    -0.19300
C1517       C  0.87368941  0.17697690  0.45369160    -0.20600
C1518       C  0.87072272  0.16226063  0.45028470    -0.19100
C1519       C  0.86653418  0.15816409  0.43595678     0.20100
C1520       C  0.86552345  0.16901490  0.42455575     0.02200
C1521       C  0.86144511  0.16403901  0.41022196    -0.13900
C1522       C  0.85776966  0.14909904  0.40760344    -0.11600
C1523       C  0.85808938  0.13869294  0.41913218     0.01700
C1524       C  0.86283445  0.14329348  0.43315514    -0.23800
H1525       H  0.86841978  0.21942767  0.41373154     0.09700
H1526       H  0.86394001  0.19418041  0.40647094     0.13300
H1527       H  0.87821834  0.20539295  0.45819988     0.12000
H1528       H  0.87680514  0.17974285  0.46493734     0.13200
H1529       H  0.87155661  0.15401934  0.45899781     0.12200
H1530       H  0.86062126  0.17151729  0.40093205     0.09300
H1531       H  0.85387106  0.14585321  0.39674437     0.12600
H1532       H  0.86297044  0.13530804  0.44215384     0.14500
C1533       C  0.88931786  0.33324438  0.40731217    -0.01100
C1534       C  0.88731966  0.34808808  0.41149729    -0.09100
C1535       C  0.88726903  0.35947421  0.40097886    -0.17900
C1536       C  0.88920533  0.35641242  0.38576383     0.04500
C1537       C  0.89151865  0.34138948  0.38157645     0.18700
C1538       C  0.89158472  0.33004721  0.39229348    -0.19300
C1539       C  0.89355690  0.33771832  0.36667599    -0.20600
C1540       C  0.89305063  0.34860243  0.35576895    -0.19100
C1541       C  0.89052514  0.36344975  0.35947648     0.20100
C1542       C  0.88870440  0.36763493  0.37453756     0.02200
C1543       C  0.88625711  0.38283554  0.37763641    -0.13900
C1544       C  0.88534187  0.39330277  0.36624251    -0.11600
C1545       C  0.88694510  0.38904646  0.35146532     0.01700
C1546       C  0.88965002  0.37412953  0.34815972    -0.23800
H1547       H  0.88549490  0.35099768  0.42295622     0.09700
H1548       H  0.88551730  0.37052749  0.40511362     0.13300
H1549       H  0.89335278  0.31868461  0.38885230     0.12000
H1550       H  0.89539479  0.32630437  0.36340610     0.13200
H1551       H  0.89451620  0.34535737  0.34432372     0.12200
H1552       H  0.88493334  0.38698831  0.38871433     0.09300
H1553       H  0.88347666  0.40484358  0.36897284     0.12600
H1554       H  0.89083798  0.37083462  0.33669628     0.14500
C1555       C  0.98375968  0.37209801  0.30867054    -0.01100
C1556       C  0.98014330  0.37547715  0.32340451    -0.09100
C1557       C  0.96569475  0.37939988  0.32743908    -0.17900
C1558       C  0.95419918  0.38014573  0.31682931     0.04500
C1559       C  0.95784452  0.37664587  0.30192759     0.18700
C1560       C  0.97240661  0.37262568  0.29803928    -0.19300
C1561       C  0.94696711  0.37735322  0.29090326    -0.20600
C1562       C  0.93261258  0.38176262  0.29426690    -0.19100
C1563       C  0.92868706  0.38546201  0.30877425     0.20100
C1564       C  0.93931536  0.38448067  0.32035440     0.02200
C1565       C  0.93457700  0.38811608  0.33485454    -0.13900
C1566       C  0.92011360  0.39307846  0.33757637    -0.11600
C1567       C  0.90989129  0.39453063  0.32600031     0.01700
C1568       C  0.91423752  0.39047352  0.31167743    -0.23800
H1569       H  0.98851014  0.37523978  0.33196408     0.09700
H1570       H  0.96390684  0.38194906  0.33894671     0.13300
H1571       H  0.97485077  0.37003172  0.28661159     0.12000
H1572       H  0.94963082  0.37466955  0.27952902     0.13200
H1573       H  0.92453800  0.38241355  0.28540454     0.12200
H1574       H  0.94187157  0.38749043  0.34428422     0.09300
H1575       H  0.91711691  0.39636364  0.34869230     0.12600
H1576       H  0.90637325  0.39153283  0.30265371     0.14500
C1577       C  0.10094232  0.36199754  0.34123638    -0.01100
C1578       C  0.09739767  0.35811024  0.35584069    -0.09100
C1579       C  0.10803913  0.35872691  0.36709138    -0.17900
C1580       C  0.12270089  0.36336898  0.36412560     0.04500
C1581       C  0.12621785  0.36741317  0.34931761     0.18700
C1582       C  0.11541992  0.36665247  0.33810148    -0.19300
C1583       C  0.14053341  0.37212854  0.34573837    -0.20600
C1584       C  0.15157532  0.37255781  0.35645463    -0.19100
C1585       C  0.14858486  0.36835457  0.37105659     0.20100
C1586       C  0.13405409  0.36394700  0.37520947     0.02200
C1587       C  0.13162175  0.36018412  0.39022956    -0.13900
C1588       C  0.14322388  0.36035640  0.40050351    -0.11600
C1589       C  0.15762960  0.36415214  0.39620492     0.01700
C1590       C  0.16015335  0.36830383  0.38147263    -0.23800
H1591       H  0.08636202  0.35435433  0.35860811     0.09700
H1592       H  0.10446635  0.35539672  0.37796380     0.13300
H1593       H  0.11830541  0.36985040  0.32691096     0.12000
H1594       H  0.14326729  0.37534315  0.33450935     0.13200
H1595       H  0.16258866  0.37607862  0.35325756     0.12200
H1596       H  0.12090388  0.35703239  0.39437877     0.09300
H1597       H  0.14091315  0.35748771  0.41190152     0.12600
H1598       H  0.17127273  0.37113327  0.37800309     0.14500
C1599       C  0.11224474  0.08669676  0.32599621    -0.01100
C1600       C  0.10918229  0.09144163  0.31154167    -0.09100
C1601       C  0.09513646  0.09658719  0.30755174    -0.17900
C1602       C  0.08343285  0.09692317  0.31791609     0.04500
C1603       C  0.08676090  0.09282345  0.33278956     0.18700
C1604       C  0.10109937  0.08785295  0.33671598    -0.19300
C1605       C  0.07558719  0.09314090  0.34350517    -0.20600
C1606       C  0.06113759  0.09708283  0.33973706    -0.19100
C1607       C  0.05739162  0.10071276  0.32511256     0.20100
C1608       C  0.06849715  0.10077651  0.31399293     0.02200
C1609       C  0.06405907  0.10431391  0.29937403    -0.13900
C1610       C  0.04925739  0.10746540  0.29594543    -0.11600
C1611       C  0.03823990  0.10730086  0.30688355     0.01700
C1612       C  0.04252697  0.10402800  0.32152087    -0.23800
H1613       H  0.11762677  0.09061085  0.30307699     0.09700
H1614       H  0.09369972  0.09981278  0.29616374     0.13300
H1615       H  0.10331020  0.08399952  0.34787349     0.12000
H1616       H  0.07798971  0.09010145  0.35486562     0.13200
H1617       H  0.05275948  0.09704205  0.34830549     0.12200
H1618       H  0.07173064  0.10457350  0.29027216     0.09300
H1619       H  0.04650576  0.11001899  0.28457227     0.12600
H1620       H  0.03427541  0.10377150  0.33018389     0.14500
C1621       C  0.16379301  0.33864907  0.41889177    -0.01100
C1622       C  0.15729088  0.33609986  0.43269080    -0.09100
C1623       C  0.15177640  0.32210870  0.43643981    -0.17900
C1624       C  0.15301368  0.31000447  0.42656287     0.04500
C1625       C  0.15915602  0.31282746  0.41232696     0.18700
C1626       C  0.16431210  0.32710945  0.40857110    -0.19300
C1627       C  0.16074360  0.30122494  0.40218328    -0.20600
C1628       C  0.15681135  0.28678507  0.40600300    -0.19100
C1629       C  0.15115152  0.28353919  0.42006723     0.20100
C1630       C  0.14894246  0.29512805  0.43047986     0.02200
C1631       C  0.14315289  0.29122081  0.44449461    -0.13900
C1632       C  0.14015204  0.27643489  0.44815112    -0.11600
C1633       C  0.14268910  0.26494084  0.43802077     0.01700
C1634       C  0.14798630  0.26869450  0.42387025    -0.23800
H1635       H  0.15695700  0.34489745  0.44083806     0.09700
H1636       H  0.14712430  0.32101317  0.44734698     0.13300
H1637       H  0.16959772  0.32902424  0.39797236     0.12000
H1638       H  0.16537350  0.30327281  0.39131316     0.13200
H1639       H  0.15845658  0.27803481  0.39796471     0.12200
H1640       H  0.14095180  0.29931108  0.45295929     0.09300
H1641       H  0.13584056  0.27406381  0.45906077     0.12600
H1642       H  0.15002047  0.26004244  0.41583656     0.14500
C1643       C  0.13415945  0.14613816  0.40758595    -0.01100
C1644       C  0.13628397  0.13125964  0.41162824    -0.09100
C1645       C  0.13683395  0.12005793  0.40095916    -0.17900
C1646       C  0.13518431  0.12331995  0.38572795     0.04500
C1647       C  0.13275833  0.13837299  0.38165969     0.18700
C1648       C  0.13237982  0.14956377  0.39251448    -0.19300
C1649       C  0.13064483  0.14217611  0.36677295    -0.20600
C1650       C  0.13080893  0.13134947  0.35581837    -0.19100
C1651       C  0.13330262  0.11644730  0.35941974     0.20100
C1652       C  0.13571194  0.11221513  0.37441014     0.02200
C1653       C  0.13859434  0.09706173  0.37737153    -0.13900
C1654       C  0.13877458  0.08658462  0.36599424    -0.11600
C1655       C  0.13611225  0.09076518  0.35130498     0.01700
C1656       C  0.13343936  0.10574307  0.34809102    -0.23800
H1657       H  0.13772624  0.12818806  0.42311789     0.09700
H1658       H  0.13847766  0.10893401  0.40501824     0.13300
H1659       H  0.13050578  0.16095551  0.38916903     0.12000
H1660       H  0.12874971  0.15361591  0.36357741     0.13200
H1661       H  0.12902004  0.13467255  0.34442336     0.12200
H1662       H  0.14079668  0.09294484  0.38835299     0.09300
H1663       H  0.14083118  0.07506207  0.36870791     0.12600
H1664       H  0.13163851  0.10907244  0.33670133     0.14500
C1665       C  0.38964640  0.64664487  0.40740512    -0.01100
C1666       C  0.38877866  0.63161965  0.41135248    -0.09100
C1667       C  0.38721579  0.62062232  0.40061676    -0.17900
C1668       C  0.38651183  0.62426006  0.38541061     0.04500
C1669       C  0.38745379  0.63948765  0.38140986     0.18700
C1670       C  0.38893242  0.65045433  0.39234862    -0.19300
C1671       C  0.38706366  0.64369488  0.36649375    -0.20600
C1672       C  0.38605108  0.63306946  0.35541095    -0.19100
C1673       C  0.38519903  0.61798372  0.35897064     0.20100
C1674       C  0.38513911  0.61335006  0.37403257     0.02200
C1675       C  0.38375866  0.59799138  0.37701583    -0.13900
C1676       C  0.38283886  0.58771212  0.36553281    -0.11600
C1677       C  0.38331235  0.59234019  0.35078089     0.01700
C1678       C  0.38442933  0.60747164  0.34753958    -0.23800
H1679       H  0.38921977  0.62821844  0.42282313     0.09700
H1680       H  0.38672818  0.60937236  0.40460396     0.13300
H1681       H  0.38969836  0.66196894  0.38902474     0.12000
H1682       H  0.38772903  0.65528704  0.36336209     0.13200
H1683       H  0.38596665  0.63667935  0.34396472     0.12200
H1684       H  0.38332098  0.59355255  0.38807215     0.09300
H1685       H  0.38191809  0.57602073  0.36815191     0.12600
H1686       H  0.38457368  0.61101230  0.33607101     0.14500
C1687       C  0.18311877  0.38758604  0.40046211    -0.01100
C1688       C  0.17170829  0.39807632  0.40053006    -0.09100
C1689       C  0.17428547  0.41265183  0.39578042    -0.17900
C1690       C  0.18848473  0.41720156  0.39087158     0.04500
C1691       C  0.19980415  0.40626506  0.39019089     0.18700
C1692       C  0.19703326  0.39168979  0.39496926    -0.19300
C1693       C  0.21399376  0.41004437  0.38525359    -0.20600
C1694       C  0.21740621  0.42461919  0.38153398    -0.19100
C1695       C  0.20673134  0.43581306  0.38270409     0.20100
C1696       C  0.19203482  0.43223932  0.38710180     0.02200
C1697       C  0.18168816  0.44396696  0.38795986    -0.13900
C1698       C  0.18589498  0.45862956  0.38518009    -0.11600
C1699       C  0.20052560  0.46221951  0.38138268     0.01700
C1700       C  0.21079925  0.45063058  0.37985957    -0.23800
H1701       H  0.16093101  0.39518045  0.40490250     0.09700
H1702       H  0.16505114  0.42018410  0.39646923     0.13300
H1703       H  0.20590448  0.38357443  0.39488727     0.12000
H1704       H  0.22262495  0.40171539  0.38457324     0.13200
H1705       H  0.22858512  0.42721059  0.37804458     0.12200
H1706       H  0.17030316  0.44222119  0.39103032     0.09300
H1707       H  0.17761681  0.46720417  0.38640999     0.12600
H1708       H  0.22208617  0.45311334  0.37668243     0.14500
C1709       C  0.35863700  0.56870252  0.34669899    -0.01100
C1710       C  0.34894063  0.58036434  0.34997943    -0.09100
C1711       C  0.33518957  0.57754347  0.35661759    -0.17900
C1712       C  0.33071014  0.56286757  0.36008560     0.04500
C1713       C  0.34102111  0.55124622  0.35744014     0.18700
C1714       C  0.35475112  0.55426136  0.35085204    -0.19300
C1715       C  0.33735757  0.53654689  0.36077766    -0.20600
C1716       C  0.32335994  0.53296499  0.36597896    -0.19100
C1717       C  0.31265141  0.54398897  0.36796564     0.20100
C1718       C  0.31623303  0.55914931  0.36544167     0.02200
C1719       C  0.30497055  0.56977208  0.36785693    -0.13900
C1720       C  0.29058567  0.56541602  0.37168332    -0.11600
C1721       C  0.28690216  0.55035700  0.37334856     0.01700
C1722       C  0.29821591  0.53979396  0.37195223    -0.23800
H1723       H  0.35168567  0.59160861  0.34676229     0.09700
H1724       H  0.32811849  0.58699769  0.35845987     0.13300
H1725       H  0.36228327  0.54521385  0.34841466     0.12000
H1726       H  0.34524648  0.52767646  0.35893913     0.13200
H1727       H  0.32075772  0.52141136  0.36805150     0.12200
H1728       H  0.30685274  0.58150826  0.36653338     0.09300
H1729       H  0.28228574  0.57395557  0.37300481     0.12600
H1730       H  0.29576389  0.52814142  0.37345221     0.14500
C1731       C  0.16939018  0.58078793  0.37279067    -0.01100
C1732       C  0.17344301  0.59571582  0.37444671    -0.09100
C1733       C  0.16283117  0.60697237  0.37427975    -0.17900
C1734       C  0.14763626  0.60371825  0.37250291     0.04500
C1735       C  0.14357424  0.58863272  0.37035485     0.18700
C1736       C  0.15439614  0.57739706  0.37049630    -0.19300
C1737       C  0.12869698  0.58481053  0.36830111    -0.20600
C1738       C  0.11770050  0.59559981  0.36869767    -0.19100
C1739       C  0.12129355  0.61049058  0.37116526     0.20100
C1740       C  0.13632111  0.61482251  0.37297797     0.02200
C1741       C  0.13930258  0.63004712  0.37540013    -0.13900
C1742       C  0.12785573  0.64044965  0.37603131    -0.11600
C1743       C  0.11310117  0.63608957  0.37430363     0.01700
C1744       C  0.10990491  0.62107986  0.37191202    -0.23800
H1745       H  0.18486930  0.59882774  0.37616488     0.09700
H1746       H  0.16689918  0.61811147  0.37574048     0.13300
H1747       H  0.15104047  0.56597301  0.36893969     0.12000
H1748       H  0.12551648  0.57335511  0.36654011     0.13200
H1749       H  0.10627608  0.59224787  0.36720085     0.12200
H1750       H  0.15035546  0.63429704  0.37684724     0.09300
H1751       H  0.13054866  0.65203141  0.37767452     0.12600
H1752       H  0.09847048  0.61764405  0.37072038     0.14500
C1753       C  0.48132053  0.60659702  0.30853882    -0.01100
C1754       C  0.47729495  0.60433591  0.32338596    -0.09100
C1755       C  0.46260785  0.60146819  0.32738436    -0.17900
C1756       C  0.45127415  0.60068081  0.31661855     0.04500
C1757       C  0.45529912  0.60324914  0.30161366     0.18700
C1758       C  0.47011890  0.60619236  0.29775107    -0.19300
C1759       C  0.44454462  0.60261894  0.29047019    -0.20600
C1760       C  0.42996712  0.59900842  0.29381410    -0.19100
C1761       C  0.42572596  0.59597593  0.30839803     0.20100
C1762       C  0.43620178  0.59706547  0.32009648     0.02200
C1763       C  0.43117145  0.59404425  0.33465072    -0.13900
C1764       C  0.41662340  0.58931947  0.33730083    -0.11600
C1765       C  0.40659845  0.58758442  0.32560041     0.01700
C1766       C  0.41116082  0.59131096  0.31124639    -0.23800
H1767       H  0.48551115  0.60463606  0.33208516     0.09700
H1768       H  0.46051273  0.59974005  0.33899323     0.13300
H1769       H  0.47288308  0.60798660  0.28623778     0.12000
H1770       H  0.44748344  0.60466464  0.27902499     0.13200
H1771       H  0.42199775  0.59830492  0.28486453     0.12200
H1772       H  0.43833163  0.59480357  0.34416441     0.09300
H1773       H  0.41347060  0.58628205  0.34845387     0.12600
H1774       H  0.40344225  0.59001860  0.30213405     0.14500
C1775       C  0.59869365  0.61770372  0.34187690    -0.01100
C1776       C  0.61301481  0.61367131  0.33755781    -0.09100
C1777       C  0.62442437  0.61252468  0.34787198    -0.17900
C1778       C  0.62194863  0.61552198  0.36300369     0.04500
C1779       C  0.60736452  0.61950050  0.36742011     0.18700
C1780       C  0.59590191  0.62048770  0.35688282    -0.19300
C1781       C  0.60434134  0.62251368  0.38230636    -0.20600
C1782       C  0.61548475  0.62161871  0.39292037    -0.19100
C1783       C  0.62994955  0.61777872  0.38890229     0.20100
C1784       C  0.63342158  0.61473547  0.37387446     0.02200
C1785       C  0.64827400  0.61118883  0.37036836    -0.13900
C1786       C  0.65917230  0.61075937  0.38129450    -0.11600
C1787       C  0.65567837  0.61363989  0.39606763     0.01700
C1788       C  0.64101778  0.61705518  0.39981925    -0.23800
H1789       H  0.61544902  0.61115511  0.32611230     0.09700
H1790       H  0.63503834  0.60922478  0.34359660     0.13300
H1791       H  0.58485829  0.62364198  0.36034512     0.12000
H1792       H  0.59327423  0.62557828  0.38576991     0.13200
H1793       H  0.61278370  0.62401851  0.40434962     0.12200
H1794       H  0.65191754  0.60888654  0.35927560     0.09300
H1795       H  0.67048080  0.60839183  0.37813511     0.12600
H1796       H  0.63826025  0.61918690  0.41128591     0.14500
C1797       C  0.57034884  0.62251844  0.22410154    -0.01100
C1798       C  0.58548110  0.62246216  0.22051154    -0.09100
C1799       C  0.59026708  0.62490029  0.20595661    -0.17900
C1800       C  0.58002377  0.62760785  0.19440929     0.04500
C1801       C  0.56469799  0.62702648  0.19799810     0.18700
C1802       C  0.56005812  0.62445871  0.21262710    -0.19300
C1803       C  0.55401132  0.62943806  0.18704324    -0.20600
C1804       C  0.55816820  0.63302065  0.17269709    -0.19100
C1805       C  0.57312398  0.63433534  0.16892549     0.20100
C1806       C  0.58433664  0.63135789  0.17957927     0.02200
C1807       C  0.59928215  0.63289920  0.17500764    -0.13900
C1808       C  0.60282718  0.63808826  0.16077721    -0.11600
C1809       C  0.59163321  0.64168462  0.15064494     0.01700
C1810       C  0.57685848  0.63929967  0.15469019    -0.23800
H1811       H  0.59375760  0.62066699  0.22899077     0.09700
H1812       H  0.60205204  0.62483585  0.20412359     0.13300
H1813       H  0.54833410  0.62447170  0.21508552     0.12000
H1814       H  0.54231957  0.62888331  0.18966556     0.13200
H1815       H  0.54958908  0.63518431  0.16457666     0.12200
H1816       H  0.60843669  0.63071172  0.18235208     0.09300
H1817       H  0.61432026  0.64000555  0.15797386     0.12600
H1818       H  0.56813992  0.64201134  0.14687206     0.14500
C1819       C  0.66920112  0.57698332  0.12517508    -0.01100
C1820       C  0.65436749  0.57349345  0.12804480    -0.09100
C1821       C  0.64354701  0.58456967  0.12854726    -0.17900
C1822       C  0.64720524  0.59963729  0.12610486     0.04500
C1823       C  0.66226603  0.60313165  0.12316501     0.18700
C1824       C  0.67302897  0.59187365  0.12271569    -0.19300
C1825       C  0.66653266  0.61785568  0.12069475    -0.20600
C1826       C  0.65615549  0.62923696  0.12106973    -0.19100
C1827       C  0.64123338  0.62618367  0.12385748     0.20100
C1828       C  0.63650289  0.61134869  0.12642950     0.02200
C1829       C  0.62125709  0.60891738  0.12912196    -0.13900
C1830       C  0.61119593  0.62069644  0.12914225    -0.11600
C1831       C  0.61594192  0.63524332  0.12659377     0.01700
C1832       C  0.63098650  0.63791270  0.12402245    -0.23800
H1833       H  0.65106375  0.56214430  0.13013655     0.09700
H1834       H  0.63244643  0.58096512  0.13092305     0.13300
H1835       H  0.68440944  0.59477178  0.12032690     0.12000
H1836       H  0.67799388  0.62059810  0.11845756     0.13200
H1837       H  0.65982481  0.64051450  0.11910164     0.12200
H1838       H  0.61673003  0.59806264  0.13113900     0.09300
H1839       H  0.59957863  0.61842328  0.13101137     0.12600
H1840       H  0.63469941  0.64919775  0.12219928     0.14500
C1841       C  0.85935225  0.56948990  0.15057626    -0.01100
C1842       C  0.84932827  0.58067848  0.14659374    -0.09100
C1843       C  0.83534261  0.57707929  0.14077347    -0.17900
C1844       C  0.83089858  0.56208614  0.13896557     0.04500
C1845       C  0.84148462  0.55089469  0.14230002     0.18700
C1846       C  0.85546449  0.55468082  0.14793896    -0.19300
C1847       C  0.83788324  0.53589856  0.14061759    -0.20600
C1848       C  0.82376389  0.53166657  0.13625104    -0.19100
C1849       C  0.81282960  0.54231276  0.13350700     0.20100
C1850       C  0.81625559  0.55769322  0.13455782     0.02200
C1851       C  0.80471261  0.56789971  0.13166596    -0.13900
C1852       C  0.79031571  0.56302043  0.12853320    -0.11600
C1853       C  0.78686844  0.54782371  0.12803884     0.01700
C1854       C  0.79835734  0.53757389  0.13017894    -0.23800
H1855       H  0.85201082  0.59219694  0.14866114     0.09700
H1856       H  0.82806938  0.58623112  0.13825839     0.13300
H1857       H  0.86319246  0.54596366  0.15095598     0.12000
H1858       H  0.84596246  0.52733449  0.14304727     0.13200
H1859       H  0.82127668  0.51994053  0.13537640     0.12200
H1860       H  0.80640885  0.57972850  0.13203248     0.09300
H1861       H  0.78183134  0.57128375  0.12663830     0.12600
H1862       H  0.79598620  0.52580762  0.12981277     0.14500
C1863       C  0.88410602  0.59357527  0.14520813    -0.01100
C1864       C  0.88102825  0.58907618  0.13070393    -0.09100
C1865       C  0.88069018  0.59934302  0.11909921    -0.17900
C1866       C  0.88364260  0.61454487  0.12162070     0.04500
C1867       C  0.88730445  0.61893981  0.13628689     0.18700
C1868       C  0.88736910  0.60852031  0.14787181    -0.19300
C1869       C  0.89079540  0.63373680  0.13934707    -0.20600
C1870       C  0.89067593  0.64433415  0.12816465    -0.19100
C1871       C  0.88684409  0.64045566  0.11367233     0.20100
C1872       C  0.88317811  0.62553193  0.11016820     0.02200
C1873       C  0.87911226  0.62233264  0.09538879    -0.13900
C1874       C  0.87896376  0.63342697  0.08455186    -0.11600
C1875       C  0.88278520  0.64808428  0.08802818     0.01700
C1876       C  0.88665421  0.65148138  0.10266664    -0.23800
H1877       H  0.87880571  0.57752244  0.12834244     0.09700
H1878       H  0.87817383  0.59501669  0.10828070     0.13300
H1879       H  0.88966152  0.61210537  0.15907828     0.12000
H1880       H  0.89368017  0.63713989  0.15047900     0.13200
H1881       H  0.89349321  0.65568853  0.13090423     0.12200
H1882       H  0.87588413  0.61138922  0.09186512     0.09300
H1883       H  0.87569459  0.63048156  0.07341444     0.12600
H1884       H  0.88971278  0.66272731  0.10554652     0.14500
C1885       C  0.12883600  0.67915817  0.47187015    -0.01100
C1886       C  0.12959150  0.69015561  0.46088560    -0.09100
C1887       C  0.12663414  0.68687956  0.44606286    -0.17900
C1888       C  0.12272634  0.67237580  0.44158201     0.04500
C1889       C  0.12236300  0.66113244  0.45262014     0.18700
C1890       C  0.12541373  0.66457993  0.46752294    -0.19300
C1891       C  0.11868622  0.64654349  0.44876836    -0.20600
C1892       C  0.11493785  0.64294495  0.43426462    -0.19100
C1893       C  0.11469271  0.65384515  0.42321714     0.20100
C1894       C  0.11879205  0.66869693  0.42666490     0.02200
C1895       C  0.11821274  0.67931490  0.41513568    -0.13900
C1896       C  0.11288510  0.67555836  0.40113145    -0.11600
C1897       C  0.10830976  0.66107967  0.39796822     0.01700
C1898       C  0.10969749  0.65013831  0.40890260    -0.23800
H1899       H  0.13234658  0.70147767  0.46367517     0.09700
H1900       H  0.12737483  0.69602092  0.43839896     0.13300
H1901       H  0.12487507  0.65584588  0.47573829     0.12000
H1902       H  0.11847344  0.63787755  0.45709422     0.13200
H1903       H  0.11187434  0.63160312  0.43174259     0.12200
H1904       H  0.12126582  0.69075767  0.41671142     0.09300
H1905       H  0.11182441  0.68417326  0.39281813     0.12600
H1906       H  0.10592258  0.63896458  0.40656783     0.14500
C1907       C  0.13368024  0.64609539  0.59026592    -0.01100
C1908       C  0.13458375  0.63101405  0.58650922    -0.09100
C1909       C  0.13525723  0.61999436  0.59744009    -0.17900
C1910       C  0.13503040  0.62366311  0.61265267     0.04500
C1911       C  0.13381046  0.63892080  0.61642764     0.18700
C1912       C  0.13319104  0.64987673  0.60532677    -0.19300
C1913       C  0.13325089  0.64321241  0.63129278    -0.20600
C1914       C  0.13391475  0.63269589  0.64254047    -0.19100
C1915       C  0.13531553  0.61760681  0.63924053     0.20100
C1916       C  0.13597407  0.61282090  0.62425862     0.02200
C1917       C  0.13769938  0.59742735  0.62162128    -0.13900
C1918       C  0.13870108  0.58730893  0.63335841    -0.11600
C1919       C  0.13789884  0.59212651  0.64804526     0.01700
C1920       C  0.13617599  0.60728339  0.65089252    -0.23800
H1921       H  0.13494376  0.62761178  0.57504767     0.09700
H1922       H  0.13595230  0.60870273  0.59362379     0.13300
H1923       H  0.13229429  0.66140402  0.60853159     0.12000
H1924       H  0.13228416  0.65481734  0.63425732     0.13200
H1925       H  0.13343204  0.63641256  0.65392605     0.12200
H1926       H  0.13840732  0.59287967  0.61063529     0.09300
H1927       H  0.13996008  0.57560960  0.63096998     0.12600
H1928       H  0.13571851  0.61103620  0.66226784     0.14500
C1929       C  0.42353799  0.36353720  0.65903616    -0.01100
C1930       C  0.42776494  0.36098375  0.64432047    -0.09100
C1931       C  0.41733051  0.36107627  0.63285338    -0.17900
C1932       C  0.40217618  0.36382064  0.63568579     0.04500
C1933       C  0.39794447  0.36649010  0.65060427     0.18700
C1934       C  0.40855450  0.36629427  0.66203749    -0.19300
C1935       C  0.38311444  0.36931631  0.65406954    -0.20600
C1936       C  0.37232669  0.36939410  0.64308497    -0.19100
C1937       C  0.37606767  0.36669655  0.62831891     0.20100
C1938       C  0.39105527  0.36395999  0.62433711     0.02200
C1939       C  0.39417900  0.36147191  0.60919082    -0.13900
C1940       C  0.38289888  0.36162318  0.59855593    -0.11600
C1941       C  0.36814853  0.36415875  0.60259964     0.01700
C1942       C  0.36484521  0.36667726  0.61751798    -0.23800
H1943       H  0.43920027  0.35868556  0.64160485     0.09700
H1944       H  0.42147416  0.35889940  0.62189361     0.13300
H1945       H  0.40510120  0.36843781  0.67330694     0.12000
H1946       H  0.37980900  0.37141721  0.66539557     0.13200
H1947       H  0.36094044  0.37155738  0.64617946     0.12200
H1948       H  0.40522921  0.35942720  0.60520057     0.09300
H1949       H  0.38572615  0.35985367  0.58705802     0.12600
H1950       H  0.35343356  0.36849869  0.62073016     0.14500
C1951       C  0.36339176  0.34038370  0.57768187    -0.01100
C1952       C  0.36753901  0.33722511  0.56310608    -0.09100
C1953       C  0.37312709  0.32333472  0.55924617    -0.17900
C1954       C  0.37450030  0.31188893  0.56987227     0.04500
C1955       C  0.37075731  0.31528314  0.58479345     0.18700
C1956       C  0.36542888  0.32950234  0.58859286    -0.19300
C1957       C  0.37170034  0.30425195  0.59568046    -0.20600
C1958       C  0.37574023  0.28980637  0.59200221    -0.19100
C1959       C  0.37908607  0.28601420  0.57735319     0.20100
C1960       C  0.37884934  0.29707227  0.56613025     0.02200
C1961       C  0.38262035  0.29270623  0.55158837    -0.13900
C1962       C  0.38581794  0.27792292  0.54822678    -0.11600
C1963       C  0.38546422  0.26688262  0.55917496     0.01700
C1964       C  0.38236886  0.27114565  0.57381648    -0.23800
H1965       H  0.36594794  0.34545708  0.55449568     0.09700
H1966       H  0.37573969  0.32176390  0.54772468     0.13300
H1967       H  0.36196009  0.33178549  0.59984380     0.12000
H1968       H  0.36892685  0.30672223  0.60707728     0.13200
H1969       H  0.37602040  0.28147422  0.60065938     0.12200
H1970       H  0.38309156  0.30043304  0.54248815     0.09300
H1971       H  0.38848194  0.27519116  0.53689387     0.12600
H1972       H  0.38214463  0.26286664  0.58250498     0.14500
C1973       C  0.39150015  0.14891285  0.59256985    -0.01100
C1974       C  0.39385232  0.15247215  0.60747836    -0.09100
C1975       C  0.39290905  0.14161844  0.61850498    -0.17900
C1976       C  0.38949886  0.12671297  0.61498631     0.04500
C1977       C  0.38720764  0.12312710  0.59984885     0.18700
C1978       C  0.38818851  0.13416261  0.58888185    -0.19300
C1979       C  0.38395574  0.10852875  0.59570641    -0.20600
C1980       C  0.38297370  0.09734690  0.60627622    -0.19100
C1981       C  0.38508724  0.10049210  0.62128128     0.20100
C1982       C  0.38831296  0.11523755  0.62588842     0.02200
C1983       C  0.39014969  0.11783060  0.64121096    -0.13900
C1984       C  0.38900648  0.10626491  0.65142885    -0.11600
C1985       C  0.38609978  0.09174943  0.64680547     0.01700
C1986       C  0.38405250  0.08894151  0.63171923    -0.23800
H1987       H  0.39659949  0.16369451  0.61070194     0.09700
H1988       H  0.39498006  0.14525723  0.62965366     0.13300
H1989       H  0.38621586  0.13120386  0.57744453     0.12000
H1990       H  0.38220713  0.10571859  0.58418192     0.13200
H1991       H  0.38050283  0.08615409  0.60268470     0.12200
H1992       H  0.39243659  0.12865085  0.64567488     0.09300
H1993       H  0.39042121  0.10866137  0.66308020     0.12600
H1994       H  0.38191057  0.07768673  0.62811307     0.14500
C1995       C  0.41512562  0.66056113  0.60049525    -0.01100
C1996       C  0.41224565  0.64870028  0.59092876    -0.09100
C1997       C  0.40755945  0.65131658  0.57634129    -0.17900
C1998       C  0.40586406  0.66596432  0.57083293     0.04500
C1999       C  0.40814117  0.67785547  0.58088936     0.18700
C2000       C  0.41254562  0.67504493  0.59549579    -0.19300
C2001       C  0.40665870  0.69256936  0.57619012    -0.20600
C2002       C  0.40345154  0.69582693  0.56153261    -0.19100
C2003       C  0.40161509  0.68445350  0.55119667     0.20100
C2004       C  0.40254545  0.66934243  0.55567388     0.02200
C2005       C  0.40053980  0.65838107  0.54467019    -0.13900
C2006       C  0.39818875  0.66230412  0.52983707    -0.11600
C2007       C  0.39766002  0.67724921  0.52544310     0.01700
C2008       C  0.39917148  0.68821267  0.53631688    -0.23800
H2009       H  0.41436994  0.63741199  0.59444335     0.09700
H2010       H  0.40587504  0.64168664  0.56948808     0.13300
H2011       H  0.41467977  0.68427990  0.60287946     0.12000
H2012       H  0.40833565  0.70165986  0.58384659     0.13200
H2013       H  0.40267189  0.70735880  0.55820020     0.12200
H2014       H  0.40090274  0.64668538  0.54715952     0.09300
H2015       H  0.39684612  0.65352747  0.52180236     0.12600
H2016       H  0.39882468  0.69981203  0.53322715     0.14500
C2017       C  0.16241690  0.56764073  0.65271119    -0.01100
C2018       C  0.16567116  0.55275841  0.64971105    -0.09100
C2019       C  0.17951307  0.54853060  0.64435928    -0.17900
C2020       C  0.19081648  0.55910611  0.64203229     0.04500
C2021       C  0.18717882  0.57433671  0.64411018     0.18700
C2022       C  0.17301761  0.57848206  0.64931976    -0.19300
C2023       C  0.19795170  0.58523958  0.64170085    -0.20600
C2024       C  0.21239419  0.58133127  0.63791465    -0.19100
C2025       C  0.21650284  0.56640158  0.63651040     0.20100
C2026       C  0.20570792  0.55508243  0.63830164     0.02200
C2027       C  0.21042907  0.54020129  0.63680992    -0.13900
C2028       C  0.22524590  0.53669751  0.63411075    -0.11600
C2029       C  0.23601826  0.54781626  0.63270680     0.01700
C2030       C  0.23142613  0.56271284  0.63368141    -0.23800
H2031       H  0.15762102  0.54420861  0.65221118     0.09700
H2032       H  0.18115659  0.53681239  0.64266813     0.13300
H2033       H  0.17064550  0.59001296  0.65176522     0.12000
H2034       H  0.19528266  0.59687513  0.64310760     0.13200
H2035       H  0.22050930  0.59005727  0.63643418     0.12200
H2036       H  0.20298436  0.53092870  0.63792690     0.09300
H2037       H  0.22820551  0.52510826  0.63333004     0.12600
H2038       H  0.23947738  0.57152863  0.63252149     0.14500
C2039       C  0.32336855  0.46146393  0.62031902    -0.01100
C2040       C  0.33840354  0.45756462  0.61940903    -0.09100
C2041       C  0.34278241  0.44299077  0.61632518    -0.17900
C2042       C  0.33222693  0.43167296  0.61394657     0.04500
C2043       C  0.31701834  0.43550290  0.61547993     0.18700
C2044       C  0.31277214  0.45018943  0.61867957    -0.19300
C2045       C  0.30606321  0.42473268  0.61341804    -0.20600
C2046       C  0.30982522  0.41036693  0.60932931    -0.19100
C2047       C  0.32464115  0.40637798  0.60716489     0.20100
C2048       C  0.33612475  0.41684195  0.60968288     0.02200
C2049       C  0.35090210  0.41209956  0.60724943    -0.13900
C2050       C  0.35400941  0.39789048  0.60172126    -0.11600
C2051       C  0.34255205  0.38787591  0.59870679     0.01700
C2052       C  0.32795294  0.39211472  0.60189524    -0.23800
H2053       H  0.34695152  0.46581861  0.62089715     0.09700
H2054       H  0.35452302  0.44097578  0.61565895     0.13300
H2055       H  0.30111434  0.45284248  0.61947690     0.12000
H2056       H  0.29446074  0.42751644  0.61467637     0.13200
H2057       H  0.30103051  0.40239831  0.60749395     0.12200
H2058       H  0.36025901  0.41930141  0.60900536     0.09300
H2059       H  0.36534975  0.39502448  0.59912699     0.12600
H2060       H  0.31900078  0.38442089  0.59964591     0.14500
C2061       C  0.35461762  0.57967586  0.62544756    -0.01100
C2062       C  0.36951239  0.57566719  0.62729223    -0.09100
C2063       C  0.38069632  0.58636647  0.62730881    -0.17900
C2064       C  0.37739929  0.60159450  0.62543297     0.04500
C2065       C  0.36230181  0.60564883  0.62356179     0.18700
C2066       C  0.35114385  0.59475821  0.62362312    -0.19300
C2067       C  0.35840957  0.62055996  0.62157465    -0.20600
C2068       C  0.36919488  0.63156577  0.62133792    -0.19100
C2069       C  0.38415736  0.62796686  0.62315136     0.20100
C2070       C  0.38849571  0.61292832  0.62530031     0.02200
C2071       C  0.40375211  0.60992849  0.62723734    -0.13900
C2072       C  0.41417974  0.62134023  0.62705890    -0.11600
C2073       C  0.40984315  0.63607981  0.62490931     0.01700
C2074       C  0.39482447  0.63933853  0.62290407    -0.23800
H2075       H  0.37263813  0.56418718  0.62884931     0.09700
H2076       H  0.39182991  0.58231953  0.62878918     0.13300
H2077       H  0.33973247  0.59810415  0.62206901     0.12000
H2078       H  0.34692246  0.62373941  0.62014645     0.13200
H2079       H  0.36579886  0.64299226  0.61973859     0.12200
H2080       H  0.40800742  0.59888914  0.62896253     0.09300
H2081       H  0.42577372  0.61865627  0.62853708     0.12600
H2082       H  0.39146576  0.65078821  0.62136815     0.14500
C2083       C  0.40879854  0.16210886  0.39840111    -0.01100
C2084       C  0.40974689  0.15045841  0.40860974    -0.09100
C2085       C  0.40566037  0.15261293  0.42342578    -0.17900
C2086       C  0.40056540  0.16660833  0.42845575     0.04500
C2087       C  0.39865352  0.17800942  0.41772045     0.18700
C2088       C  0.40275181  0.17565762  0.40292657    -0.19300
C2089       C  0.39340793  0.19198079  0.42192557    -0.20600
C2090       C  0.39070038  0.19517474  0.43670430    -0.19100
C2091       C  0.39324713  0.18450849  0.44768445     0.20100
C2092       C  0.39790796  0.16996510  0.44374203     0.02200
C2093       C  0.40023506  0.15966740  0.45534327    -0.13900
C2094       C  0.39861946  0.16383232  0.47018300    -0.11600
C2095       C  0.39455627  0.17836054  0.47404907     0.01700
C2096       C  0.39155523  0.18850213  0.46262915    -0.23800
H2097       H  0.41455518  0.13995370  0.40534553     0.09700
H2098       H  0.40714052  0.14330331  0.43078652     0.13300
H2099       H  0.40206461  0.18471324  0.39502793     0.12000
H2100       H  0.39177694  0.20065442  0.41375927     0.13200
H2101       H  0.38699152  0.20622818  0.43960727     0.12200
H2102       H  0.40362586  0.14838650  0.45331316     0.09300
H2103       H  0.40091980  0.15564053  0.47863596     0.12600
H2104       H  0.38813416  0.19969008  0.46530740     0.14500
C2105       C  0.16053805  0.06649224  0.34584625    -0.01100
C2106       C  0.17088505  0.07798574  0.34699736    -0.09100
C2107       C  0.18549774  0.07504683  0.35144015    -0.17900
C2108       C  0.19022458  0.06041115  0.35481842     0.04500
C2109       C  0.17938526  0.04899065  0.35447448     0.18700
C2110       C  0.16479622  0.05211603  0.35001309    -0.19300
C2111       C  0.18328016  0.03437334  0.35800582    -0.20600
C2112       C  0.19784677  0.03069572  0.36138314    -0.19100
C2113       C  0.20895537  0.04150822  0.36119165     0.20100
C2114       C  0.20531221  0.05655959  0.35808202     0.02200
C2115       C  0.21701842  0.06695582  0.35794581    -0.13900
C2116       C  0.23168158  0.06254371  0.36042718    -0.11600
C2117       C  0.23531010  0.04763131  0.36320827     0.01700
C2118       C  0.22374561  0.03724006  0.36378417    -0.23800
H2119       H  0.16789572  0.08914057  0.34366809     0.09700
H2120       H  0.19294413  0.08438449  0.35171663     0.13300
H2121       H  0.15681973  0.04316540  0.34913583     0.12000
H2122       H  0.17503265  0.02564395  0.35788547     0.13200
H2123       H  0.20049810  0.01922294  0.36383902     0.12200
H2124       H  0.21522827  0.07856944  0.35570040     0.09300
H2125       H  0.24019753  0.07094622  0.35993743     0.12600
H2126       H  0.22620356  0.02569588  0.36602460     0.14500
C2127       C  0.40491036  0.13921310  0.37265200    -0.01100
C2128       C  0.38998407  0.14242058  0.37529130    -0.09100
C2129       C  0.37922833  0.13130083  0.37468795    -0.17900
C2130       C  0.38307565  0.11644299  0.37140006     0.04500
C2131       C  0.39824882  0.11326150  0.36862363     0.18700
C2132       C  0.40895791  0.12459698  0.36927370    -0.19300
C2133       C  0.40266082  0.09876167  0.36528923    -0.20600
C2134       C  0.39235406  0.08730174  0.36470548    -0.19100
C2135       C  0.37733954  0.09001676  0.36743166     0.20100
C2136       C  0.37246649  0.10463620  0.37079100     0.02200
C2137       C  0.35719107  0.10676108  0.37342679    -0.13900
C2138       C  0.34722407  0.09493718  0.37269783    -0.11600
C2139       C  0.35201062  0.08051505  0.36935794     0.01700
C2140       C  0.36716306  0.07817124  0.36679098    -0.23800
H2141       H  0.38660502  0.15367947  0.37772757     0.09700
H2142       H  0.36801248  0.13471382  0.37684386     0.13300
H2143       H  0.42051382  0.12202035  0.36736578     0.12000
H2144       H  0.41419145  0.09625108  0.36313912     0.13200
H2145       H  0.39617153  0.07620844  0.36211355     0.12200
H2146       H  0.35255993  0.11743242  0.37610847     0.09300
H2147       H  0.33568161  0.09718468  0.37493632     0.12600
H2148       H  0.37107762  0.06713802  0.36411935     0.14500
C2149       C  0.45197162  0.12490258  0.27689759    -0.01100
C2150       C  0.46286797  0.12643069  0.28786269    -0.09100
C2151       C  0.45910490  0.12991616  0.30245247    -0.17900
C2152       C  0.44417836  0.13206108  0.30668927     0.04500
C2153       C  0.43313278  0.13053409  0.29559842     0.18700
C2154       C  0.43707265  0.12689312  0.28096823    -0.19300
C2155       C  0.41820763  0.13286746  0.29911449    -0.20600
C2156       C  0.41402103  0.13698010  0.31335586    -0.19100
C2157       C  0.42461872  0.13868637  0.32453551     0.20100
C2158       C  0.43983955  0.13598345  0.32141927     0.02200
C2159       C  0.45007973  0.13758337  0.33313857    -0.13900
C2160       C  0.44553305  0.14249324  0.34703302    -0.11600
C2161       C  0.43066404  0.14579933  0.34989270     0.01700
C2162       C  0.42016253  0.14352351  0.33870139    -0.23800
H2163       H  0.47445822  0.12503538  0.28523352     0.09700
H2164       H  0.46818194  0.13103852  0.31009585     0.13300
H2165       H  0.42843037  0.12580418  0.27274796     0.12000
H2166       H  0.40971005  0.13172323  0.29072008     0.13200
H2167       H  0.40240684  0.13896090  0.31560814     0.12200
H2168       H  0.46172794  0.13541513  0.33187465     0.09300
H2169       H  0.45381967  0.14415746  0.35555175     0.12600
H2170       H  0.40866332  0.14625306  0.34077878     0.14500
C2171       C  0.36152962  0.11518762  0.10554611    -0.01100
C2172       C  0.37620897  0.11573467  0.10073403    -0.09100
C2173       C  0.38787150  0.11543229  0.11090954    -0.17900
C2174       C  0.38514691  0.11470110  0.12632936     0.04500
C2175       C  0.37015001  0.11419438  0.13109187     0.18700
C2176       C  0.35856590  0.11438388  0.12071359    -0.19300
C2177       C  0.36679027  0.11351778  0.14618383    -0.20600
C2178       C  0.37801185  0.11336841  0.15672316    -0.19100
C2179       C  0.39289325  0.11387831  0.15244553     0.20100
C2180       C  0.39669660  0.11451326  0.13719436     0.02200
C2181       C  0.41189389  0.11499474  0.13352741    -0.13900
C2182       C  0.42280196  0.11493248  0.14450241    -0.11600
C2183       C  0.41905199  0.11436716  0.15955401     0.01700
C2184       C  0.40399544  0.11380146  0.16338342    -0.23800
H2185       H  0.37863013  0.11618619  0.08901176     0.09700
H2186       H  0.39887987  0.11578299  0.10634511     0.13300
H2187       H  0.34715201  0.11399688  0.12439636     0.12000
H2188       H  0.35538263  0.11313163  0.14987331     0.13200
H2189       H  0.37502015  0.11287743  0.16832290     0.12200
H2190       H  0.41574750  0.11547248  0.12225791     0.09300
H2191       H  0.43424590  0.11542350  0.14105901     0.12600
H2192       H  0.40080159  0.11327591  0.17491093     0.14500
C2193       C  0.16189336  0.83924119  0.57852607    -0.01100
C2194       C  0.15848560  0.82921353  0.58987731    -0.09100
C2195       C  0.15380338  0.81473536  0.58659824    -0.17900
C2196       C  0.15263591  0.80972471  0.57176967     0.04500
C2197       C  0.15547227  0.82018374  0.56033975     0.18700
C2198       C  0.15987608  0.83471751  0.56380212    -0.19300
C2199       C  0.15450582  0.81594012  0.54547667    -0.20600
C2200       C  0.15127778  0.80136293  0.54166363    -0.19100
C2201       C  0.14889223  0.79062390  0.55260837     0.20100
C2202       C  0.14928534  0.79466860  0.56781787     0.02200
C2203       C  0.14669482  0.78335827  0.57835462    -0.13900
C2204       C  0.14427195  0.76865259  0.57400168    -0.11600
C2205       C  0.14426562  0.76458676  0.55900127     0.01700
C2206       C  0.14638757  0.77579238  0.54838061    -0.23800
H2207       H  0.16017765  0.83227662  0.60132767     0.09700
H2208       H  0.15169210  0.80756163  0.59591346     0.13300
H2209       H  0.16240660  0.84241271  0.55491607     0.12000
H2210       H  0.15659352  0.82389352  0.53671226     0.13200
H2211       H  0.15090010  0.79841256  0.53004902     0.12200
H2212       H  0.14662843  0.78549722  0.59008313     0.09300
H2213       H  0.14251305  0.76044605  0.58255503     0.12600
H2214       H  0.14633686  0.77301576  0.53673496     0.14500
C2215       C  0.15610855  0.86267011  0.60397089    -0.01100
C2216       C  0.14128644  0.86064722  0.59998900    -0.09100
C2217       C  0.13015090  0.86055252  0.61072465    -0.17900
C2218       C  0.13354237  0.86251068  0.62590924     0.04500
C2219       C  0.14867331  0.86435684  0.62987267     0.18700
C2220       C  0.15973329  0.86441226  0.61894138    -0.19300
C2221       C  0.15267918  0.86627231  0.64471183    -0.20600
C2222       C  0.14195816  0.86662800  0.65573698    -0.19100
C2223       C  0.12694184  0.86505066  0.65222391     0.20100
C2224       C  0.12250882  0.86286249  0.63727711     0.02200
C2225       C  0.10721414  0.86125066  0.63437925    -0.13900
C2226       C  0.09679831  0.86199845  0.64576795    -0.11600
C2227       C  0.10114930  0.86434068  0.66048784     0.01700
C2228       C  0.11632158  0.86575716  0.66359829    -0.23800
H2229       H  0.13830312  0.85935511  0.58845447     0.09700
H2230       H  0.11901061  0.85904901  0.60676025     0.13300
H2231       H  0.17123959  0.86581233  0.62204840     0.12000
H2232       H  0.16419407  0.86762613  0.64780829     0.13200
H2233       H  0.14544103  0.86824170  0.66710139     0.12200
H2234       H  0.10290912  0.85943098  0.62341832     0.09300
H2235       H  0.08524811  0.86064665  0.64292036     0.12600
H2236       H  0.11994425  0.86760456  0.67486945     0.14500
C2237       C  0.78721820  0.42908214  0.36806234    -0.01100
C2238       C  0.79877542  0.43849338  0.37241096    -0.09100
C2239       C  0.81356468  0.43485681  0.36951884    -0.17900
C2240       C  0.81735275  0.42165709  0.36194411     0.04500
C2241       C  0.80563711  0.41191330  0.35795841     0.18700
C2242       C  0.79081858  0.41563834  0.36109507    -0.19300
C2243       C  0.80873261  0.39865362  0.35052619    -0.20600
C2244       C  0.82316764  0.39503559  0.34655467    -0.19100
C2245       C  0.83491091  0.40461193  0.34982603     0.20100
C2246       C  0.83223077  0.41797995  0.35776147     0.02200
C2247       C  0.84448121  0.42736829  0.36054678    -0.13900
C2248       C  0.85850505  0.42408660  0.35485809    -0.11600
C2249       C  0.86092590  0.41118455  0.34664112     0.01700
C2250       C  0.84920428  0.40126060  0.34453759    -0.23800
H2251       H  0.79640600  0.44879116  0.37807854     0.09700
H2252       H  0.82176249  0.44270205  0.37319737     0.13300
H2253       H  0.78205103  0.40821796  0.35763462     0.12000
H2254       H  0.79987601  0.39113119  0.34751588     0.13200
H2255       H  0.82510785  0.38483113  0.34053725     0.12200
H2256       H  0.84346656  0.43763182  0.36654075     0.09300
H2257       H  0.86741856  0.43197587  0.35639050     0.12600
H2258       H  0.85100407  0.39141303  0.33790241     0.14500
C2259       C  0.70012874  0.51615645  0.37924502    -0.01100
C2260       C  0.71066140  0.52750144  0.37789321    -0.09100
C2261       C  0.70683151  0.54234599  0.38019885    -0.17900
C2262       C  0.69224162  0.54646217  0.38412900     0.04500
C2263       C  0.68139304  0.53507680  0.38476780     0.18700
C2264       C  0.68536671  0.52016856  0.38221976    -0.19300
C2265       C  0.66675253  0.53856295  0.38853338    -0.20600
C2266       C  0.66284360  0.55295336  0.39257143    -0.19100
C2267       C  0.67344928  0.56427247  0.39286695     0.20100
C2268       C  0.68819444  0.56129234  0.38815181     0.02200
C2269       C  0.69843534  0.57313713  0.38841957    -0.13900
C2270       C  0.69459899  0.58687383  0.39437365    -0.11600
C2271       C  0.68038045  0.58948229  0.39990439     0.01700
C2272       C  0.66963736  0.57834407  0.39857706    -0.23800
H2273       H  0.72206014  0.52496157  0.37528236     0.09700
H2274       H  0.71567933  0.55029535  0.37918542     0.13300
H2275       H  0.67696071  0.51166462  0.38313084     0.12000
H2276       H  0.65835482  0.52998467  0.38885206     0.13200
H2277       H  0.65154164  0.55513541  0.39594201     0.12200
H2278       H  0.70968554  0.57199973  0.38463975     0.09300
H2279       H  0.70299905  0.59541176  0.39517132     0.12600
H2280       H  0.65861371  0.58030149  0.40289447     0.14500
C2281       C  0.66910766  0.39795631  0.37238110    -0.01100
C2282       C  0.65444627  0.40169128  0.36890069    -0.09100
C2283       C  0.64338294  0.39085583  0.36847798    -0.17900
C2284       C  0.64660342  0.37582151  0.37168565     0.04500
C2285       C  0.66153421  0.37206593  0.37501507     0.18700
C2286       C  0.67255829  0.38306125  0.37528195    -0.19300
C2287       C  0.66538823  0.35736278  0.37820589    -0.20600
C2288       C  0.65471950  0.34626099  0.37824387    -0.19100
C2289       C  0.63990013  0.34957947  0.37516941     0.20100
C2290       C  0.63558913  0.36440272  0.37183838     0.02200
C2291       C  0.62041824  0.36713191  0.36900879    -0.13900
C2292       C  0.61002958  0.35566934  0.36958167    -0.11600
C2293       C  0.61435783  0.34109845  0.37279765     0.01700
C2294       C  0.62933917  0.33813548  0.37550212    -0.23800
H2295       H  0.65147515  0.41305306  0.36637735     0.09700
H2296       H  0.63241776  0.39462301  0.36564270     0.13300
H2297       H  0.68382188  0.37999947  0.37807056     0.12000
H2298       H  0.67674890  0.35442590  0.38074556     0.13200
H2299       H  0.65807443  0.33499826  0.38080813     0.12200
H2300       H  0.61618701  0.37802424  0.36648826     0.09300
H2301       H  0.59847924  0.35823946  0.36766290     0.12600
H2302       H  0.63276941  0.32684627  0.37783300     0.14500
C2303       C  0.68475390  0.38293372  0.10059255    -0.01100
C2304       C  0.67297905  0.39302859  0.10117359    -0.09100
C2305       C  0.67540862  0.40784244  0.10530556    -0.17900
C2306       C  0.68981014  0.41304586  0.10882110     0.04500
C2307       C  0.70149670  0.40248115  0.10900720     0.18700
C2308       C  0.69885161  0.38767285  0.10502976    -0.19300
C2309       C  0.71593286  0.40684625  0.11254362    -0.20600
C2310       C  0.71917826  0.42161047  0.11545552    -0.19100
C2311       C  0.70809066  0.43243323  0.11484253     0.20100
C2312       C  0.69320118  0.42833574  0.11170007     0.02200
C2313       C  0.68251995  0.43980286  0.11117981    -0.13900
C2314       C  0.68652455  0.45466080  0.11337172    -0.11600
C2315       C  0.70128654  0.45868761  0.11619831     0.01700
C2316       C  0.71193770  0.44738724  0.11709497    -0.23800
H2317       H  0.66202424  0.38970429  0.09761801     0.09700
H2318       H  0.66589949  0.41507587  0.10516379     0.13300
H2319       H  0.70801757  0.37989831  0.10466184     0.12000
H2320       H  0.72486448  0.39881168  0.11277141     0.13200
H2321       H  0.73052870  0.42462970  0.11792129     0.12200
H2322       H  0.67100320  0.43765722  0.10888314     0.09300
H2323       H  0.67797258  0.46302547  0.11257852     0.12600
H2324       H  0.72335720  0.45018037  0.11944630     0.14500
C2325       C  0.56973966  0.35511571  0.27574104    -0.01100
C2326       C  0.55889626  0.35576678  0.28683318    -0.09100
C2327       C  0.56245372  0.35313557  0.30168209    -0.17900
C2328       C  0.57709004  0.34963754  0.30606715     0.04500
C2329       C  0.58817355  0.34950423  0.29492653     0.18700
C2330       C  0.58445258  0.35228117  0.28002033    -0.19300
C2331       C  0.60287430  0.34621928  0.29866132    -0.20600
C2332       C  0.60672882  0.34248159  0.31311916    -0.19100
C2333       C  0.59599424  0.34192702  0.32425726     0.20100
C2334       C  0.58105405  0.34579457  0.32096371     0.02200
C2335       C  0.57064413  0.34504884  0.33261313    -0.13900
C2336       C  0.57468385  0.33973842  0.34657234    -0.11600
C2337       C  0.58924137  0.33532259  0.34957611     0.01700
C2338       C  0.59997363  0.33688220  0.33851178    -0.23800
H2339       H  0.54747387  0.35809490  0.28409565     0.09700
H2340       H  0.55341800  0.35369541  0.30943073     0.13300
H2341       H  0.59308269  0.35191353  0.27173541     0.12000
H2342       H  0.61142246  0.34621788  0.29025901     0.13200
H2343       H  0.61814401  0.33965079  0.31552829     0.12200
H2344       H  0.55917234  0.34799750  0.33117375     0.09300
H2345       H  0.56623667  0.33861843  0.35500128     0.12600
H2346       H  0.61122246  0.33329455  0.34072677     0.14500
C2347       C  0.65967942  0.35883202  0.10399152    -0.01100
C2348       C  0.64514580  0.35668104  0.09904826    -0.09100
C2349       C  0.63325322  0.35697024  0.10897546    -0.17900
C2350       C  0.63557160  0.35933038  0.12429991     0.04500
C2351       C  0.65040076  0.36140174  0.12921586     0.18700
C2352       C  0.66219976  0.36122065  0.11908575    -0.19300
C2353       C  0.65341527  0.36350739  0.14425104    -0.20600
C2354       C  0.64204871  0.36342870  0.15459875    -0.19100
C2355       C  0.62733082  0.36138757  0.15018595     0.20100
C2356       C  0.62381497  0.35951143  0.13496319     0.02200
C2357       C  0.60870453  0.35784715  0.13116034    -0.13900
C2358       C  0.59766172  0.35765425  0.14203592    -0.11600
C2359       C  0.60120703  0.35909854  0.15709588     0.01700
C2360       C  0.61612815  0.36112946  0.16099250    -0.23800
H2361       H  0.64297935  0.35491423  0.08739907     0.09700
H2362       H  0.62240237  0.35520417  0.10434365     0.13300
H2363       H  0.67346172  0.36271304  0.12295875     0.12000
H2364       H  0.66468358  0.36509180  0.14806524     0.13200
H2365       H  0.64480852  0.36493818  0.16617351     0.12200
H2366       H  0.60506273  0.35663379  0.11986916     0.09300
H2367       H  0.58629913  0.35615860  0.13855837     0.12600
H2368       H  0.61914268  0.36253876  0.17249956     0.14500
C2369       C  0.61441529  0.38978323  0.67186524    -0.01100
C2370       C  0.61162986  0.38483406  0.68628665    -0.09100
C2371       C  0.59770739  0.37958448  0.69037873    -0.17900
C2372       C  0.58586964  0.37933261  0.68015186     0.04500
C2373       C  0.58902932  0.38316352  0.66518787     0.18700
C2374       C  0.60326331  0.38828960  0.66114925    -0.19300
C2375       C  0.57774181  0.38259419  0.65456374    -0.20600
C2376       C  0.56327435  0.37902036  0.65859969    -0.19100
C2377       C  0.55965043  0.37608081  0.67340319     0.20100
C2378       C  0.57094004  0.37598641  0.68435837     0.02200
C2379       C  0.56668240  0.37316503  0.69915933    -0.13900
C2380       C  0.55186459  0.37085420  0.70295623    -0.11600
C2381       C  0.54064350  0.37115315  0.69222079     0.01700
C2382       C  0.54473945  0.37359601  0.67737177    -0.23800
H2383       H  0.62014600  0.38573402  0.69469459     0.09700
H2384       H  0.59646367  0.37629057  0.70176593     0.13300
H2385       H  0.60531273  0.39214123  0.64996681     0.12000
H2386       H  0.58004050  0.38528836  0.64310268     0.13200
H2387       H  0.55477055  0.37897420  0.65013111     0.12200
H2388       H  0.57449639  0.37295838  0.70816125     0.09300
H2389       H  0.54926911  0.36894025  0.71447601     0.12600
H2390       H  0.53633168  0.37385730  0.66883677     0.14500
C2391       C  0.62986870  0.29971655  0.47236299    -0.01100
C2392       C  0.62807967  0.31464340  0.46821145    -0.09100
C2393       C  0.62549385  0.31865451  0.45343722    -0.17900
C2394       C  0.62451475  0.30781439  0.44218747     0.04500
C2395       C  0.62673090  0.29274733  0.44637055     0.18700
C2396       C  0.62943615  0.28889279  0.46122599    -0.19300
C2397       C  0.62588342  0.28150176  0.43575900    -0.20600
C2398       C  0.62230594  0.28479358  0.42116943    -0.19100
C2399       C  0.61953621  0.29942646  0.41677432     0.20100
C2400       C  0.62093557  0.31124183  0.42707295     0.02200
C2401       C  0.61813534  0.32582896  0.42184174    -0.13900
C2402       C  0.61309586  0.32837725  0.40734498    -0.11600
C2403       C  0.61091260  0.31652945  0.39757799     0.01700
C2404       C  0.61469290  0.30218199  0.40226002    -0.23800
H2405       H  0.62842312  0.32335274  0.47641233     0.09700
H2406       H  0.62404774  0.33031719  0.45119950     0.13300
H2407       H  0.63096914  0.27732520  0.46407275     0.12000
H2408       H  0.62765958  0.27000965  0.43883593     0.13200
H2409       H  0.62135031  0.27575902  0.41332703     0.12200
H2410       H  0.61922085  0.33542804  0.42885655     0.09300
H2411       H  0.61011760  0.33954437  0.40406137     0.12600
H2412       H  0.61311024  0.29295700  0.39472882     0.14500
C2413       C  0.63921225  0.33200544  0.59005672    -0.01100
C2414       C  0.64251671  0.34672025  0.58621280    -0.09100
C2415       C  0.64264773  0.35794367  0.59687883    -0.17900
C2416       C  0.63942756  0.35483489  0.61188089     0.04500
C2417       C  0.63641071  0.33985315  0.61579183     0.18700
C2418       C  0.63628700  0.32869433  0.60494790    -0.19300
C2419       C  0.63346317  0.33605955  0.63051847    -0.20600
C2420       C  0.63342494  0.34682515  0.64149664    -0.19100
C2421       C  0.63612265  0.36170249  0.63800902     0.20100
C2422       C  0.63907668  0.36598628  0.62314455     0.02200
C2423       C  0.64136088  0.38125270  0.62023607    -0.13900
C2424       C  0.64077533  0.39172733  0.63161530    -0.11600
C2425       C  0.63807147  0.38738330  0.64624936     0.01700
C2426       C  0.63580322  0.37233532  0.64934560    -0.23800
H2427       H  0.64508470  0.34965618  0.57489242     0.09700
H2428       H  0.64535933  0.36892732  0.59303330     0.13300
H2429       H  0.63369540  0.31742104  0.60817524     0.12000
H2430       H  0.63119053  0.32465709  0.63358480     0.13200
H2431       H  0.63113309  0.34350109  0.65279427     0.12200
H2432       H  0.64343689  0.38547300  0.60927726     0.09300
H2433       H  0.64233779  0.40333569  0.62895313     0.12600
H2434       H  0.63388462  0.36888802  0.66067139     0.14500
C2435       C  0.41110082  0.39735445  0.17131989    -0.01100
C2436       C  0.41579905  0.38336536  0.16629057    -0.09100
C2437       C  0.43013585  0.37808437  0.16934047    -0.17900
C2438       C  0.44022277  0.38641766  0.17798314     0.04500
C2439       C  0.43529495  0.40030379  0.18344871     0.18700
C2440       C  0.42121990  0.40573884  0.17972913    -0.19300
C2441       C  0.44435958  0.40871407  0.19279537    -0.20600
C2442       C  0.45824751  0.40358474  0.19695060    -0.19100
C2443       C  0.46367589  0.39016862  0.19143361     0.20100
C2444       C  0.45490948  0.38149333  0.18161205     0.02200
C2445       C  0.46138619  0.36848368  0.17569434    -0.13900
C2446       C  0.47590122  0.36432542  0.17942924    -0.11600
C2447       C  0.48421254  0.37269462  0.18950475     0.01700
C2448       C  0.47796228  0.38552686  0.19553809    -0.23800
H2449       H  0.40844775  0.37614723  0.16029990     0.09700
H2450       H  0.43287669  0.36721749  0.16518769     0.13300
H2451       H  0.41822163  0.41667149  0.18361355     0.12000
H2452       H  0.44058854  0.41926919  0.19711632     0.13200
H2453       H  0.46489533  0.41029262  0.20435416     0.12200
H2454       H  0.45560920  0.36151404  0.16791314     0.09300
H2455       H  0.48058704  0.35439830  0.17458518     0.12600
H2456       H  0.48445354  0.39218760  0.20313418     0.14500
C2457       C  0.35574669  0.13855595  0.08034085    -0.01100
C2458       C  0.35864948  0.14195996  0.06549181    -0.09100
C2459       C  0.36448284  0.15571740  0.06138064    -0.17900
C2460       C  0.36738764  0.16680638  0.07204392     0.04500
C2461       C  0.36489042  0.16315658  0.08717620     0.18700
C2462       C  0.35926946  0.14908474  0.09119275    -0.19300
C2463       C  0.36745159  0.17379689  0.09815038    -0.20600
C2464       C  0.37194043  0.18811305  0.09442134    -0.19100
C2465       C  0.37407872  0.19220134  0.07960946     0.20100
C2466       C  0.37213816  0.18152243  0.06822034     0.02200
C2467       C  0.37468828  0.18617801  0.05348730    -0.13900
C2468       C  0.37835957  0.20089458  0.05017360    -0.11600
C2469       C  0.37969808  0.21162194  0.06134603     0.01700
C2470       C  0.37783233  0.20700979  0.07611633    -0.23800
H2471       H  0.35600100  0.13400940  0.05691161     0.09700
H2472       H  0.36614533  0.15748110  0.04970670     0.13300
H2473       H  0.35681228  0.14666879  0.10268500     0.12000
H2474       H  0.36564724  0.17112752  0.10970534     0.13200
H2475       H  0.37351250  0.19613404  0.10320031     0.12200
H2476       H  0.37377374  0.17874263  0.04421058     0.09300
H2477       H  0.37994734  0.20382890  0.03868344     0.12600
H2478       H  0.37898699  0.21498557  0.08498127     0.14500
C2479       C  0.38667041  0.38821722  0.14714866    -0.01100
C2480       C  0.39389140  0.39124942  0.13383683    -0.09100
C2481       C  0.39476356  0.38045305  0.12274979    -0.17900
C2482       C  0.38848123  0.36617883  0.12478562     0.04500
C2483       C  0.38111469  0.36329118  0.13840289     0.18700
C2484       C  0.38011792  0.37434299  0.14930280    -0.19300
C2485       C  0.37487014  0.34935577  0.14112486    -0.20600
C2486       C  0.37585576  0.33811014  0.13066825    -0.19100
C2487       C  0.38296245  0.34054329  0.11712694     0.20100
C2488       C  0.38927793  0.35464346  0.11390659     0.02200
C2489       C  0.39606476  0.35653448  0.09993103    -0.13900
C2490       C  0.39649079  0.34496151  0.08963381    -0.11600
C2491       C  0.39032738  0.33105085  0.09288009     0.01700
C2492       C  0.38366876  0.32893671  0.10673872    -0.23800
H2493       H  0.39881856  0.40205157  0.13203679     0.09700
H2494       H  0.40050760  0.38356933  0.11278513     0.13300
H2495       H  0.37444671  0.37214051  0.15963906     0.12000
H2496       H  0.36925930  0.34709607  0.15147964     0.13200
H2497       H  0.37096777  0.32742363  0.13318102     0.12200
H2498       H  0.40105714  0.36685175  0.09657795     0.09300
H2499       H  0.40180369  0.34693069  0.07908334     0.12600
H2500       H  0.37870300  0.31831753  0.10936286     0.14500
C2501       C  0.08577361  0.33903651  0.14667282    -0.01100
C2502       C  0.09761971  0.33946431  0.15668290    -0.09100
C2503       C  0.09540251  0.34383585  0.17142546    -0.17900
C2504       C  0.08114260  0.34782037  0.17664269     0.04500
C2505       C  0.06941483  0.34826664  0.16613772     0.18700
C2506       C  0.07183143  0.34393428  0.15140098    -0.19300
C2507       C  0.05514209  0.35238037  0.17051947    -0.20600
C2508       C  0.05205406  0.35542827  0.18526197    -0.19100
C2509       C  0.06313283  0.35437351  0.19605195     0.20100
C2510       C  0.07790790  0.35083086  0.19191277     0.02200
C2511       C  0.08860787  0.34997014  0.20333222    -0.13900
C2512       C  0.08468027  0.35202218  0.21820188    -0.11600
C2513       C  0.06998987  0.35507587  0.22229626     0.01700
C2514       C  0.05936851  0.35650113  0.21101717    -0.23800
H2515       H  0.10846172  0.33558935  0.15335188     0.09700
H2516       H  0.10493724  0.34350128  0.17859361     0.13300
H2517       H  0.06262015  0.34368215  0.14369530     0.12000
H2518       H  0.04619500  0.35289002  0.16253248     0.13200
H2519       H  0.04080125  0.35826713  0.18830131     0.12200
H2520       H  0.10005897  0.34745414  0.20114294     0.09300
H2521       H  0.09323080  0.35091717  0.22651958     0.12600
H2522       H  0.04801268  0.35908094  0.21382879     0.14500
C2523       C  0.28565872  0.42686252  0.13320477    -0.01100
C2524       C  0.29711424  0.43618202  0.12846347    -0.09100
C2525       C  0.31193094  0.43228058  0.13064498    -0.17900
C2526       C  0.31584783  0.41893719  0.13793731     0.04500
C2527       C  0.30419317  0.40948553  0.14272600     0.18700
C2528       C  0.28931809  0.41338436  0.14011534    -0.19300
C2529       C  0.30743743  0.39643532  0.15052199    -0.20600
C2530       C  0.32197152  0.39288716  0.15425305    -0.19100
C2531       C  0.33367340  0.40212053  0.14999332     0.20100
C2532       C  0.33083974  0.41498774  0.14128343     0.02200
C2533       C  0.34312013  0.42363938  0.13682287    -0.13900
C2534       C  0.35734344  0.42050293  0.14204691    -0.11600
C2535       C  0.35984806  0.40850240  0.15153809     0.01700
C2536       C  0.34810824  0.39901060  0.15503746    -0.23800
H2537       H  0.29463737  0.44658135  0.12298317     0.09700
H2538       H  0.32005565  0.44015118  0.12682542     0.13300
H2539       H  0.28056689  0.40613866  0.14399425     0.12000
H2540       H  0.29862251  0.38915034  0.15417841     0.13200
H2541       H  0.32404675  0.38299109  0.16076537     0.12200
H2542       H  0.34202946  0.43320076  0.12972415     0.09300
H2543       H  0.36632764  0.42797682  0.13931506     0.12600
H2544       H  0.35003265  0.38980816  0.16254854     0.14500
C2545       C  0.16778732  0.39656350  0.12265746    -0.01100
C2546       C  0.17149948  0.38158693  0.12070095    -0.09100
C2547       C  0.16059502  0.37060243  0.12049571    -0.17900
C2548       C  0.14546839  0.37421510  0.12227934     0.04500
C2549       C  0.14172334  0.38941986  0.12414374     0.18700
C2550       C  0.15280881  0.40035428  0.12429037    -0.19300
C2551       C  0.12692544  0.39365184  0.12593336    -0.20600
C2552       C  0.11571744  0.38310149  0.12595598    -0.19100
C2553       C  0.11901845  0.36804532  0.12418695     0.20100
C2554       C  0.13393243  0.36333984  0.12230433     0.02200
C2555       C  0.13660165  0.34795813  0.12056091    -0.13900
C2556       C  0.12495423  0.33776622  0.12062368    -0.11600
C2557       C  0.11033739  0.34251358  0.12243173     0.01700
C2558       C  0.10744684  0.35765158  0.12425417    -0.23800
H2559       H  0.18290386  0.37824377  0.11924389     0.09700
H2560       H  0.16439022  0.35938663  0.11893338     0.13300
H2561       H  0.14968816  0.41183634  0.12589396     0.12000
H2562       H  0.12399038  0.40522357  0.12735230     0.13200
H2563       H  0.10437586  0.38674866  0.12738202     0.12200
H2564       H  0.14754140  0.34343726  0.11914270     0.09300
H2565       H  0.12736317  0.32607025  0.11935661     0.12600
H2566       H  0.09609536  0.36132323  0.12555035     0.14500
C2567       C  0.10475529  0.31761168  0.09874569    -0.01100
C2568       C  0.10750200  0.30265924  0.09557734    -0.09100
C2569       C  0.11337278  0.29831658  0.08197739    -0.17900
C2570       C  0.11648045  0.30885674  0.07080699     0.04500
C2571       C  0.11449622  0.32412342  0.07433171     0.18700
C2572       C  0.10876932  0.32837440  0.08825340    -0.19300
C2573       C  0.11756708  0.33498610  0.06366992    -0.20600
C2574       C  0.12179572  0.33101190  0.04938240    -0.19100
C2575       C  0.12306828  0.31605959  0.04533842     0.20100
C2576       C  0.12081493  0.30477146  0.05609595     0.02200
C2577       C  0.12243431  0.28986906  0.05148316    -0.13900
C2578       C  0.12538208  0.28632828  0.03671402    -0.11600
C2579       C  0.12695987  0.29742501  0.02591451     0.01700
C2580       C  0.12614841  0.31233207  0.03048419    -0.23800
H2581       H  0.10460214  0.29416122  0.10355948     0.09700
H2582       H  0.11485562  0.28658016  0.08039389     0.13300
H2583       H  0.10656442  0.33996466  0.09053950     0.12000
H2584       H  0.11627313  0.34664484  0.06626940     0.13200
H2585       H  0.12369236  0.33971271  0.04131507     0.12200
H2586       H  0.12121645  0.28063915  0.05895553     0.09300
H2587       H  0.12619855  0.27473214  0.03379945     0.12600
H2588       H  0.12753412  0.32113352  0.02244721     0.14500
C2589       C  0.13906278  0.33037649  0.90796816    -0.01100
C2590       C  0.13667171  0.32670812  0.89306452    -0.09100
C2591       C  0.13541948  0.33775188  0.88219013    -0.17900
C2592       C  0.13659077  0.35296357  0.88585270     0.04500
C2593       C  0.13951099  0.35659402  0.90088853     0.18700
C2594       C  0.14064527  0.34539523  0.91169655    -0.19300
C2595       C  0.14121535  0.37141717  0.90512539    -0.20600
C2596       C  0.13998253  0.38277440  0.89478915    -0.19100
C2597       C  0.13684266  0.37963555  0.87996516     0.20100
C2598       C  0.13500507  0.36471069  0.87522495     0.02200
C2599       C  0.13153936  0.36229467  0.86011366    -0.13900
C2600       C  0.13022430  0.37418971  0.85017201    -0.11600
C2601       C  0.13235949  0.38880451  0.85492477     0.01700
C2602       C  0.13553355  0.39141145  0.86985823    -0.23800
H2603       H  0.13545437  0.31524276  0.88975871     0.09700
H2604       H  0.13350866  0.33404356  0.87102539     0.13300
H2605       H  0.14280188  0.34845610  0.92307689     0.12000
H2606       H  0.14351971  0.37426114  0.91654305     0.13200
H2607       H  0.14140322  0.39412960  0.89844976     0.12200
H2608       H  0.12978371  0.35135766  0.85566215     0.09300
H2609       H  0.12783387  0.37194864  0.83865005     0.12600
H2610       H  0.13697174  0.40273603  0.87360473     0.14500
C2611       C  0.43319810  0.33493040  0.85279005    -0.01100
C2612       C  0.44745210  0.34037112  0.84996010    -0.09100
C2613       C  0.45169737  0.34474492  0.83573470    -0.17900
C2614       C  0.44184087  0.34355569  0.82362613     0.04500
C2615       C  0.42715839  0.33864343  0.82664154     0.18700
C2616       C  0.42294111  0.33451468  0.84114402    -0.19300
C2617       C  0.41695943  0.33730784  0.81504390    -0.20600
C2618       C  0.42107314  0.34039962  0.80050245    -0.19100
C2619       C  0.43552823  0.34488909  0.79709781     0.20100
C2620       C  0.44610706  0.34665134  0.80861673     0.02200
C2621       C  0.46056239  0.35110848  0.80452847    -0.13900
C2622       C  0.46436396  0.35352658  0.78969074    -0.11600
C2623       C  0.45396547  0.35168365  0.77827742     0.01700
C2624       C  0.43948992  0.34743688  0.78218927    -0.23800
H2625       H  0.45558161  0.34073013  0.85877993     0.09700
H2626       H  0.46292481  0.34858532  0.83450906     0.13300
H2627       H  0.41197060  0.33008668  0.84317898     0.12000
H2628       H  0.40575114  0.33361288  0.81720203     0.13200
H2629       H  0.41291197  0.33906789  0.79180810     0.12200
H2630       H  0.46925320  0.35272940  0.81254190     0.09300
H2631       H  0.47557932  0.35690510  0.78722938     0.12600
H2632       H  0.43125156  0.34587903  0.77362467     0.14500
C2633       C  0.41166988  0.31628255  0.90099359    -0.01100
C2634       C  0.40889698  0.32803882  0.91070226    -0.09100
C2635       C  0.40341220  0.32534058  0.92498894    -0.17900
C2636       C  0.40066469  0.31068892  0.93004993     0.04500
C2637       C  0.40265465  0.29893742  0.91977214     0.18700
C2638       C  0.40808022  0.30183011  0.90548384    -0.19300
C2639       C  0.39989094  0.28425597  0.92400827    -0.20600
C2640       C  0.39590323  0.28085458  0.93847056    -0.19100
C2641       C  0.39464452  0.29203463  0.94911856     0.20100
C2642       C  0.39666169  0.30715008  0.94502613     0.02200
C2643       C  0.39514997  0.31794097  0.95625920    -0.13900
C2644       C  0.39253837  0.31383777  0.97099292    -0.11600
C2645       C  0.39122165  0.29886102  0.97513239     0.01700
C2646       C  0.39187277  0.28807809  0.96394823    -0.23800
H2647       H  0.41172513  0.33927474  0.90752714     0.09700
H2648       H  0.40192279  0.33489100  0.93198837     0.13300
H2649       H  0.41020592  0.29267974  0.89799977     0.12000
H2650       H  0.40122309  0.27526958  0.91616838     0.13200
H2651       H  0.39421825  0.26932687  0.94144995     0.12200
H2652       H  0.39625704  0.32964299  0.95405992     0.09300
H2653       H  0.39180468  0.32253317  0.97918129     0.12600
H2654       H  0.39071157  0.27646530  0.96677285     0.14500
C2655       C  0.23189032  0.42787814  0.86886768    -0.01100
C2656       C  0.22787321  0.41358403  0.86418616    -0.09100
C2657       C  0.21303531  0.40985484  0.86160830    -0.17900
C2658       C  0.20157948  0.42037078  0.86356886     0.04500
C2659       C  0.20564865  0.43472011  0.86869111     0.18700
C2660       C  0.22059481  0.43826991  0.87136820    -0.19300
C2661       C  0.19481755  0.44562886  0.87073351    -0.20600
C2662       C  0.18011461  0.44285605  0.86713666    -0.19100
C2663       C  0.17579907  0.42902784  0.86161026     0.20100
C2664       C  0.18634016  0.41739804  0.86016248     0.02200
C2665       C  0.18117809  0.40350301  0.85495005    -0.13900
C2666       C  0.16642270  0.40158337  0.85050240    -0.11600
C2667       C  0.15636920  0.41338660  0.85113574     0.01700
C2668       C  0.16106969  0.42695249  0.85703223    -0.23800
H2669       H  0.23624351  0.40525724  0.86212893     0.09700
H2670       H  0.21091539  0.39874641  0.85775907     0.13300
H2671       H  0.22340908  0.44928915  0.87520226     0.12000
H2672       H  0.19780355  0.45654294  0.87475856     0.13200
H2673       H  0.17209202  0.45170493  0.86843471     0.12200
H2674       H  0.18836316  0.39401876  0.85384935     0.09300
H2675       H  0.16305800  0.39104197  0.84586115     0.12600
H2676       H  0.15329659  0.43611372  0.85758734     0.14500
C2677       C  0.34952325  0.39415152  0.87405247    -0.01100
C2678       C  0.34585147  0.37952767  0.87791471    -0.09100
C2679       C  0.35659522  0.36831835  0.87810278    -0.17900
C2680       C  0.37149919  0.37134052  0.87433256     0.04500
C2681       C  0.37515051  0.38615800  0.87032936     0.18700
C2682       C  0.36424183  0.39731573  0.87023156    -0.19300
C2683       C  0.38971016  0.38981478  0.86650233    -0.20600
C2684       C  0.40082013  0.37913872  0.86678007    -0.19100
C2685       C  0.39766483  0.36448305  0.87079663     0.20100
C2686       C  0.38293600  0.36029221  0.87448545     0.02200
C2687       C  0.38036849  0.34524969  0.87819376    -0.13900
C2688       C  0.39195970  0.33494929  0.87844806    -0.11600
C2689       C  0.40651175  0.33923445  0.87520420     0.01700
C2690       C  0.40923066  0.35402726  0.87127508    -0.23800
H2691       H  0.33463652  0.37671174  0.88104077     0.09700
H2692       H  0.35290193  0.35743084  0.88134250     0.13300
H2693       H  0.36726549  0.40850128  0.86705969     0.12000
H2694       H  0.39256360  0.40106765  0.86337851     0.13200
H2695       H  0.41199328  0.38239193  0.86387150     0.12200
H2696       H  0.36953883  0.34109098  0.88093133     0.09300
H2697       H  0.38953113  0.32352303  0.88123399     0.12600
H2698       H  0.42046086  0.35749191  0.86890871     0.14500
C2699       C  0.03541250  0.37358336  0.80814901    -0.01100
C2700       C  0.04704610  0.37295424  0.79791869    -0.09100
C2701       C  0.06159865  0.37613354  0.80214176    -0.17900
C2702       C  0.06511834  0.38016583  0.81685775     0.04500
C2703       C  0.05343470  0.38024874  0.82736189     0.18700
C2704       C  0.03881715  0.37699433  0.82296046    -0.19300
C2705       C  0.05636366  0.38384790  0.84215812    -0.20600
C2706       C  0.07058163  0.38776097  0.84668625    -0.19100
C2707       C  0.08224401  0.38834849  0.83651553     0.20100
C2708       C  0.07970011  0.38443305  0.82145808     0.02200
C2709       C  0.09173701  0.38556670  0.81154215    -0.13900
C2710       C  0.10541369  0.39104629  0.81619499    -0.11600
C2711       C  0.10776768  0.39525094  0.83090359     0.01700
C2712       C  0.09626889  0.39350276  0.84114035    -0.23800
H2713       H  0.04496115  0.37006027  0.78649794     0.09700
H2714       H  0.06984117  0.37540406  0.79356373     0.13300
H2715       H  0.03006821  0.37745533  0.83111970     0.12000
H2716       H  0.04753780  0.38382973  0.85027135     0.13200
H2717       H  0.07238824  0.39070532  0.85816885     0.12200
H2718       H  0.09079610  0.38288804  0.79996405     0.09300
H2719       H  0.11411502  0.39254715  0.80808845     0.12600
H2720       H  0.09794916  0.39708761  0.85246709     0.14500
C2721       C  0.91790153  0.36347940  0.83807224    -0.01100
C2722       C  0.90283182  0.36409124  0.83436451    -0.09100
C2723       C  0.89193556  0.36411227  0.84531639    -0.17900
C2724       C  0.89574291  0.36351600  0.86048732     0.04500
C2725       C  0.91100681  0.36258327  0.86420994     0.18700
C2726       C  0.92184247  0.36260015  0.85308182    -0.19300
C2727       C  0.91541274  0.36165646  0.87903813    -0.20600
C2728       C  0.90496420  0.36157562  0.89030214    -0.19100
C2729       C  0.88985848  0.36259247  0.88703022     0.20100
C2730       C  0.88499590  0.36373823  0.87208832     0.02200
C2731       C  0.86959995  0.36513972  0.86945807    -0.13900
C2732       C  0.85951704  0.36516094  0.88115737    -0.11600
C2733       C  0.86439701  0.36372123  0.89576415     0.01700
C2734       C  0.87956189  0.36248483  0.89864816    -0.23800
H2735       H  0.89932034  0.36467574  0.82293642     0.09700
H2736       H  0.88064204  0.36456947  0.84152677     0.13300
H2737       H  0.93337841  0.36193924  0.85623880     0.12000
H2738       H  0.92703360  0.36092961  0.88195025     0.13200
H2739       H  0.90873335  0.36076350  0.90166625     0.12200
H2740       H  0.86499584  0.36628605  0.85852437     0.09300
H2741       H  0.84779532  0.36610500  0.87880697     0.12600
H2742       H  0.88330449  0.36154295  0.91001260     0.14500
C2743       C  0.90666338  0.66208730  0.89569844    -0.01100
C2744       C  0.90516788  0.65040934  0.90582113    -0.09100
C2745       C  0.90011319  0.65305797  0.92024564    -0.17900
C2746       C  0.89659364  0.66760324  0.92505555     0.04500
C2747       C  0.89709065  0.67918128  0.91437307     0.18700
C2748       C  0.90205957  0.67632906  0.89992441    -0.19300
C2749       C  0.89327987  0.69369383  0.91833288    -0.20600
C2750       C  0.88957625  0.69712385  0.93285661    -0.19100
C2751       C  0.88980055  0.68617813  0.94386053     0.20100
C2752       C  0.89313831  0.67122033  0.94011827     0.02200
C2753       C  0.89347296  0.66070365  0.95173539    -0.13900
C2754       C  0.89097338  0.66492842  0.96642034    -0.11600
C2755       C  0.88793395  0.67974754  0.97014717     0.01700
C2756       C  0.88711916  0.69023970  0.95866439    -0.23800
H2757       H  0.90872173  0.63933079  0.90287354     0.09700
H2758       H  0.89954062  0.64358789  0.92751121     0.13300
H2759       H  0.90306563  0.68541049  0.89209841     0.12000
H2760       H  0.89348098  0.70253999  0.91019444     0.13200
H2761       H  0.88694490  0.70852603  0.93558297     0.12200
H2762       H  0.89598707  0.64917443  0.94987808     0.09300
H2763       H  0.89169851  0.65646588  0.97488188     0.12600
H2764       H  0.88468000  0.70171025  0.96120691     0.14500
C2765       C  0.81987197  0.46075006  0.88083254    -0.01100
C2766       C  0.83493822  0.45712278  0.88231456    -0.09100
C2767       C  0.83947536  0.44262986  0.88559084    -0.17900
C2768       C  0.82905145  0.43111972  0.88761121     0.04500
C2769       C  0.81381957  0.43472415  0.88576370     0.18700
C2770       C  0.80942365  0.44931412  0.88227884    -0.19300
C2771       C  0.80297921  0.42383385  0.88781811    -0.20600
C2772       C  0.80686405  0.40957761  0.89223196    -0.19100
C2773       C  0.82171275  0.40575609  0.89449317     0.20100
C2774       C  0.83309601  0.41630945  0.89184567     0.02200
C2775       C  0.84794506  0.41162226  0.89394327    -0.13900
C2776       C  0.85122679  0.39735415  0.89923709    -0.11600
C2777       C  0.83987141  0.38731630  0.90253032     0.01700
C2778       C  0.82517907  0.39152321  0.89982044    -0.23800
H2779       H  0.84339128  0.46552409  0.88115117     0.09700
H2780       H  0.85121293  0.44085602  0.88677714     0.13300
H2781       H  0.79775064  0.45176844  0.88110258     0.12000
H2782       H  0.79135690  0.42645736  0.88635655     0.13200
H2783       H  0.79815313  0.40152992  0.89410407     0.12200
H2784       H  0.85723389  0.41882335  0.89189253     0.09300
H2785       H  0.86265636  0.39442241  0.90139156     0.12600
H2786       H  0.81634033  0.38376324  0.90226824     0.14500
C2787       C  0.85037989  0.57896708  0.87496498    -0.01100
C2788       C  0.86502754  0.57534082  0.87130868    -0.09100
C2789       C  0.87596846  0.58628802  0.87044831    -0.17900
C2790       C  0.87262973  0.60135486  0.87326590     0.04500
C2791       C  0.85774310  0.60498941  0.87686255     0.18700
C2792       C  0.84688082  0.59386733  0.87773538    -0.19300
C2793       C  0.85372809  0.61973362  0.87954747    -0.20600
C2794       C  0.86416030  0.63101444  0.87866292    -0.19100
C2795       C  0.87892846  0.62782637  0.87528178     0.20100
C2796       C  0.88345345  0.61295034  0.87264583     0.02200
C2797       C  0.89862899  0.61037638  0.86968808    -0.13900
C2798       C  0.90881755  0.62206225  0.86947972    -0.11600
C2799       C  0.90424164  0.63669439  0.87194989     0.01700
C2800       C  0.88923241  0.63947088  0.87467819    -0.23800
H2801       H  0.86809404  0.56399594  0.86890756     0.09700
H2802       H  0.88690616  0.58261377  0.86743809     0.13300
H2803       H  0.83566398  0.59689681  0.88067151     0.12000
H2804       H  0.84240257  0.62258097  0.88229139     0.13200
H2805       H  0.86066706  0.64232066  0.88076233     0.12200
H2806       H  0.90301812  0.59943756  0.86775277     0.09300
H2807       H  0.92039334  0.61961744  0.86760010     0.12600
H2808       H  0.88558618  0.65078493  0.87643570     0.14500
C2809       C  0.04044030  0.60563897  0.69217420    -0.01100
C2810       C  0.05107869  0.60532597  0.70350699    -0.09100
C2811       C  0.06606849  0.60304676  0.70042283    -0.17900
C2812       C  0.07110707  0.60090070  0.68577351     0.04500
C2813       C  0.06039463  0.60131478  0.67425043     0.18700
C2814       C  0.04530642  0.60376208  0.67750343    -0.19300
C2815       C  0.06477127  0.59897689  0.65956460    -0.20600
C2816       C  0.07944684  0.59567602  0.65613132    -0.19100
C2817       C  0.09021824  0.59483071  0.66725721     0.20100
C2818       C  0.08627376  0.59787130  0.68219548     0.02200
C2819       C  0.09763313  0.59734818  0.69294630    -0.13900
C2820       C  0.11194064  0.59286827  0.68923428    -0.11600
C2821       C  0.11558028  0.58885873  0.67470707     0.01700
C2822       C  0.10476908  0.59036466  0.66364330    -0.23800
H2823       H  0.04789277  0.60672846  0.71494071     0.09700
H2824       H  0.07340918  0.60276615  0.70983376     0.13300
H2825       H  0.03735386  0.60396340  0.66853197     0.12000
H2826       H  0.05670652  0.59935822  0.65068154     0.13200
H2827       H  0.08234539  0.59353313  0.64470056     0.12200
H2828       H  0.09575250  0.59999075  0.70441822     0.09300
H2829       H  0.12013367  0.59196531  0.69795743     0.12600
H2830       H  0.10738158  0.58715225  0.65239472     0.14500
C2831       C  0.95242753  0.62167902  0.77634391    -0.01100
C2832       C  0.96322589  0.62328750  0.78740557    -0.09100
C2833       C  0.95930762  0.62612951  0.80210020    -0.17900
C2834       C  0.94431057  0.62757029  0.80636685     0.04500
C2835       C  0.93333944  0.62555998  0.79526968     0.18700
C2836       C  0.93744545  0.62261689  0.78050441    -0.19300
C2837       C  0.91831463  0.62682033  0.79890672    -0.20600
C2838       C  0.91395252  0.63066410  0.81317569    -0.19100
C2839       C  0.92448510  0.63332253  0.82423028     0.20100
C2840       C  0.93981758  0.63142950  0.82108533     0.02200
C2841       C  0.94999724  0.63405189  0.83267873    -0.13900
C2842       C  0.94525014  0.63940867  0.84635712    -0.11600
C2843       C  0.93023638  0.64213542  0.84914009     0.01700
C2844       C  0.91982998  0.63855863  0.83819555    -0.23800
H2845       H  0.97487066  0.62253229  0.78476508     0.09700
H2846       H  0.96832004  0.62736328  0.80980589     0.13300
H2847       H  0.92887128  0.62128915  0.77224125     0.12000
H2848       H  0.90986065  0.62515797  0.79055597     0.13200
H2849       H  0.90224951  0.63192438  0.81548218     0.12200
H2850       H  0.96175041  0.63255489  0.83139567     0.09300
H2851       H  0.95348340  0.64200633  0.85469059     0.12600
H2852       H  0.90820868  0.64078151  0.84018501     0.14500
C2853       C  0.92222435  0.61358654  0.65791305    -0.01100
C2854       C  0.92604375  0.61598547  0.64306083    -0.09100
C2855       C  0.91519846  0.61662161  0.63201357    -0.17900
C2856       C  0.90002191  0.61484535  0.63542810     0.04500
C2857       C  0.89618055  0.61240801  0.65048768     0.18700
C2858       C  0.90720430  0.61179708  0.66147920    -0.19300
C2859       C  0.88133501  0.61060703  0.65453395    -0.20600
C2860       C  0.87016658  0.61123070  0.64395706    -0.19100
C2861       C  0.87354393  0.61364237  0.62904535     0.20100
C2862       C  0.88851878  0.61544475  0.62451387     0.02200
C2863       C  0.89126763  0.61778755  0.60926897    -0.13900
C2864       C  0.87964875  0.61844776  0.59905943    -0.11600
C2865       C  0.86495182  0.61679907  0.60363574     0.01700
C2866       C  0.86198763  0.61433600  0.61863679    -0.23800
H2867       H  0.93747929  0.61753956  0.63988711     0.09700
H2868       H  0.91906633  0.61857712  0.62090644     0.13300
H2869       H  0.90399235  0.60981458  0.67284874     0.12000
H2870       H  0.87832493  0.60873792  0.66599183     0.13200
H2871       H  0.85878602  0.60983198  0.64747757     0.12200
H2872       H  0.90226525  0.61914174  0.60487154     0.09300
H2873       H  0.88215080  0.62015568  0.58746963     0.12600
H2874       H  0.85059873  0.61317417  0.62221759     0.14500
C2875       C  0.91216651  0.31859000  0.59822311    -0.01100
C2876       C  0.90703865  0.30424545  0.59531713    -0.09100
C2877       C  0.90196746  0.30030683  0.58127106    -0.17900
C2878       C  0.90216589  0.31059074  0.56943890     0.04500
C2879       C  0.90688339  0.32533342  0.57256934     0.18700
C2880       C  0.91168252  0.32923502  0.58691537    -0.19300
C2881       C  0.90732296  0.33591647  0.56122216    -0.20600
C2882       C  0.90353549  0.33211083  0.54677500    -0.19100
C2883       C  0.89920474  0.31761107  0.54325993     0.20100
C2884       C  0.89829421  0.30667301  0.55456094     0.02200
C2885       C  0.89387887  0.29221225  0.55038712    -0.13900
C2886       C  0.89082617  0.28870381  0.53562882    -0.11600
C2887       C  0.89198721  0.29941367  0.52441346     0.01700
C2888       C  0.89602349  0.31393901  0.52843713    -0.23800
H2889       H  0.90737721  0.29586224  0.60392087     0.09700
H2890       H  0.89838366  0.28899304  0.57995331     0.13300
H2891       H  0.91586154  0.34030045  0.58906040     0.12000
H2892       H  0.91086836  0.34717112  0.56348624     0.13200
H2893       H  0.90420754  0.34054011  0.53823434     0.12200
H2894       H  0.89280285  0.28327909  0.55824333     0.09300
H2895       H  0.88761520  0.27744391  0.53306630     0.12600
H2896       H  0.89697348  0.32244747  0.52002916     0.14500
C2897       C  0.93049130  0.33999687  0.64634133    -0.01100
C2898       C  0.91886899  0.34191577  0.65639041    -0.09100
C2899       C  0.92165434  0.34713675  0.67076344    -0.17900
C2900       C  0.93625403  0.35049388  0.67551780     0.04500
C2901       C  0.94778356  0.34939586  0.66488862     0.18700
C2902       C  0.94480463  0.34422451  0.65055273    -0.19300
C2903       C  0.96237738  0.35284482  0.66877073    -0.20600
C2904       C  0.96593548  0.35686413  0.68316745    -0.19100
C2905       C  0.95501849  0.35740783  0.69411353     0.20100
C2906       C  0.93998200  0.35441738  0.69045682     0.02200
C2907       C  0.92949200  0.35501755  0.70203214    -0.13900
C2908       C  0.93381819  0.35805688  0.71660777    -0.11600
C2909       C  0.94872468  0.36068829  0.72024184     0.01700
C2910       C  0.95918730  0.36058240  0.70878244    -0.23800
H2911       H  0.90773969  0.33859096  0.65341113     0.09700
H2912       H  0.91224685  0.34799546  0.67803781     0.13300
H2913       H  0.95383513  0.34278032  0.64278366     0.12000
H2914       H  0.97118217  0.35213645  0.66066537     0.13200
H2915       H  0.97739586  0.35921691  0.68583769     0.12200
H2916       H  0.91788763  0.35290595  0.70021480     0.09300
H2917       H  0.92536847  0.35807570  0.72506502     0.12600
H2918       H  0.97071926  0.36272387  0.71124468     0.14500
C2919       C  0.73443268  0.43374690  0.63172755    -0.01100
C2920       C  0.72373923  0.44479450  0.63399833    -0.09100
C2921       C  0.70901842  0.44115834  0.63699963    -0.17900
C2922       C  0.70435299  0.42621275  0.63793382     0.04500
C2923       C  0.71515283  0.41498919  0.63567349     0.18700
C2924       C  0.72993780  0.41881407  0.63245341    -0.19300
C2925       C  0.71119810  0.40000913  0.63698603    -0.20600
C2926       C  0.69687993  0.39594949  0.64105343    -0.19100
C2927       C  0.68602850  0.40674601  0.64358397     0.20100
C2928       C  0.68950493  0.42202026  0.64156066     0.02200
C2929       C  0.67802968  0.43246369  0.64359231    -0.13900
C2930       C  0.66412787  0.42806852  0.64862391    -0.11600
C2931       C  0.66102384  0.41315381  0.65165802     0.01700
C2932       C  0.67187696  0.40244301  0.64865165    -0.23800
H2933       H  0.72668692  0.45640859  0.63362384     0.09700
H2934       H  0.70162919  0.45035025  0.63886681     0.13300
H2935       H  0.73795897  0.41005841  0.63077222     0.12000
H2936       H  0.71934605  0.39136331  0.63523113     0.13200
H2937       H  0.69432489  0.38427892  0.64240092     0.12200
H2938       H  0.67950842  0.44416982  0.64166979     0.09300
H2939       H  0.65584404  0.43650736  0.65069859     0.12600
H2940       H  0.66961178  0.39087812  0.65105817     0.14500
C2941       C  0.82102678  0.51985241  0.61916876    -0.01100
C2942       C  0.81028665  0.53094661  0.62092021    -0.09100
C2943       C  0.81359675  0.54584098  0.61825498    -0.17900
C2944       C  0.82787343  0.55028039  0.61363488     0.04500
C2945       C  0.83892447  0.53912381  0.61237900     0.18700
C2946       C  0.83544701  0.52412748  0.61516243    -0.19300
C2947       C  0.85330808  0.54296546  0.60804132    -0.20600
C2948       C  0.85684868  0.55757816  0.60447562    -0.19100
C2949       C  0.84608416  0.56874029  0.60505822     0.20100
C2950       C  0.83147452  0.56528786  0.60984926     0.02200
C2951       C  0.82096248  0.57691362  0.61007549    -0.13900
C2952       C  0.82456130  0.59106916  0.60496963    -0.11600
C2953       C  0.83878309  0.59429059  0.59976877     0.01700
C2954       C  0.84964778  0.58319895  0.60024504    -0.23800
H2955       H  0.79915044  0.52817951  0.62431543     0.09700
H2956       H  0.80464965  0.55359417  0.61979955     0.13300
H2957       H  0.84395281  0.51577224  0.61381634     0.12000
H2958       H  0.86183796  0.53455596  0.60716136     0.13200
H2959       H  0.86801554  0.56010207  0.60089420     0.12200
H2960       H  0.80969232  0.57533168  0.61363708     0.09300
H2961       H  0.81600559  0.59949333  0.60464298     0.12600
H2962       H  0.86061288  0.58556467  0.59597990     0.14500
C2963       C  0.85160667  0.40063758  0.62029000    -0.01100
C2964       C  0.84750803  0.38604969  0.61680615    -0.09100
C2965       C  0.85800159  0.37466352  0.61638825    -0.17900
C2966       C  0.87308773  0.37745158  0.61952053     0.04500
C2967       C  0.87728021  0.39231460  0.62267485     0.18700
C2968       C  0.86659923  0.40366766  0.62304648    -0.19300
C2969       C  0.89210640  0.39576450  0.62558907    -0.20600
C2970       C  0.90287018  0.38473492  0.62565232    -0.19100
C2971       C  0.89907469  0.36994317  0.62292966     0.20100
C2972       C  0.88413637  0.36605858  0.61977089     0.02200
C2973       C  0.88091085  0.35090735  0.61726012    -0.13900
C2974       C  0.89200914  0.34013186  0.61798872    -0.11600
C2975       C  0.90667308  0.34403013  0.62112516     0.01700
C2976       C  0.91013855  0.35897690  0.62349665    -0.23800
H2977       H  0.83611173  0.38332630  0.61433246     0.09700
H2978       H  0.85392697  0.36379377  0.61359478     0.13300
H2979       H  0.87001956  0.41485062  0.62574497     0.12000
H2980       H  0.89539987  0.40708203  0.62792150     0.13200
H2981       H  0.91423276  0.38777746  0.62802685     0.12200
H2982       H  0.86989817  0.34698216  0.61490723     0.09300
H2983       H  0.88908167  0.32861427  0.61630341     0.12600
H2984       H  0.92151224  0.36205192  0.62577022     0.14500
C2985       C  0.65811713  0.56539784  0.84997377    -0.01100
C2986       C  0.66123626  0.55119914  0.85539936    -0.09100
C2987       C  0.67521013  0.54769184  0.86097454    -0.17900
C2988       C  0.68677151  0.55826397  0.86093812     0.04500
C2989       C  0.68334309  0.57292083  0.85612675     0.18700
C2990       C  0.66902190  0.57641276  0.85090219    -0.19300
C2991       C  0.69445041  0.58374848  0.85579077    -0.20600
C2992       C  0.70903382  0.58015843  0.85938581    -0.19100
C2993       C  0.71288926  0.56566579  0.86352869     0.20100
C2994       C  0.70173412  0.55461908  0.86476642     0.02200
C2995       C  0.70614617  0.54024818  0.86926226    -0.13900
C2996       C  0.72102701  0.53679052  0.87164319    -0.11600
C2997       C  0.73214001  0.54747347  0.86977934     0.01700
C2998       C  0.72789107  0.56204073  0.86605611    -0.23800
H2999       H  0.65292221  0.54255947  0.85478631     0.09700
H3000       H  0.67674651  0.53641730  0.86462460     0.13300
H3001       H  0.66669267  0.58738772  0.84654671     0.12000
H3002       H  0.69193590  0.59496992  0.85225976     0.13200
H3003       H  0.71742279  0.58871039  0.85858548     0.12200
H3004       H  0.69839256  0.53132332  0.87087084     0.09300
H3005       H  0.72377585  0.52557181  0.87490289     0.12600
H3006       H  0.73626492  0.57052024  0.86467586     0.14500
C3007       C  0.63074092  0.67671085  0.02722972    -0.01100
C3008       C  0.62784544  0.66189028  0.03114417    -0.09100
C3009       C  0.62541011  0.65776925  0.04590913    -0.17900
C3010       C  0.62568577  0.66839733  0.05739396     0.04500
C3011       C  0.62903495  0.68331256  0.05344584     0.18700
C3012       C  0.63162495  0.68725990  0.03859772    -0.19300
C3013       C  0.62937141  0.69436294  0.06428607    -0.20600
C3014       C  0.62582596  0.69108803  0.07887607    -0.19100
C3015       C  0.62198957  0.67664518  0.08305943     0.20100
C3016       C  0.62224942  0.66495482  0.07252934     0.02200
C3017       C  0.61853859  0.65051457  0.07758137    -0.13900
C3018       C  0.61373418  0.64807532  0.09216262    -0.11600
C3019       C  0.61262715  0.65988209  0.10215376     0.01700
C3020       C  0.61726229  0.67400462  0.09761820    -0.23800
H3021       H  0.62718421  0.65336455  0.02277353     0.09700
H3022       H  0.62302775  0.64623294  0.04795360     0.13300
H3023       H  0.63400302  0.69872106  0.03593524     0.12000
H3024       H  0.63201325  0.70572842  0.06138892     0.13200
H3025       H  0.62576716  0.70001114  0.08689882     0.12200
H3026       H  0.61878140  0.64099140  0.07039364     0.09300
H3027       H  0.61010222  0.63708398  0.09536566     0.12600
H3028       H  0.61650938  0.68317850  0.10533306     0.14500
C3029       C  0.63096529  0.64641246  0.90872783    -0.01100
C3030       C  0.62863235  0.65036516  0.89389527    -0.09100
C3031       C  0.62918720  0.63975998  0.88266729    -0.17900
C3032       C  0.63212657  0.62468407  0.88588073     0.04500
C3033       C  0.63425919  0.62064480  0.90094864     0.18700
C3034       C  0.63368136  0.63145155  0.91214281    -0.19300
C3035       C  0.63699110  0.60583497  0.90477684    -0.20600
C3036       C  0.63760557  0.59490296  0.89396085    -0.19100
C3037       C  0.63563060  0.59851379  0.87902333     0.20100
C3038       C  0.63295656  0.61347263  0.87472708     0.02200
C3039       C  0.63126856  0.61653118  0.85944966    -0.13900
C3040       C  0.63196160  0.60518919  0.84898082    -0.11600
C3041       C  0.63433364  0.59047632  0.85330867     0.01700
C3042       C  0.63625002  0.58721569  0.86834178    -0.23800
H3043       H  0.62628525  0.66173700  0.89084837     0.09700
H3044       H  0.62721207  0.64373640  0.87160536     0.13300
H3045       H  0.63554778  0.62815204  0.92351531     0.12000
H3046       H  0.63861820  0.60266688  0.91623835     0.13200
H3047       H  0.63967364  0.58353656  0.89730664     0.12200
H3048       H  0.62944314  0.62754408  0.85521154     0.09300
H3049       H  0.63066143  0.60791456  0.83737587     0.12600
H3050       H  0.63797441  0.57580585  0.87172226     0.14500
C3051       C  0.38637440  0.82875443  0.90525697    -0.01100
C3052       C  0.38634217  0.82429878  0.89039664    -0.09100
C3053       C  0.38622295  0.83471475  0.87892429    -0.17900
C3054       C  0.38608630  0.85010799  0.88189097     0.04500
C3055       C  0.38637534  0.85462834  0.89695599     0.18700
C3056       C  0.38653481  0.84401045  0.90840213    -0.19300
C3057       C  0.38639267  0.86973487  0.90053486    -0.20600
C3058       C  0.38593838  0.88048166  0.88948339    -0.19100
C3059       C  0.38546795  0.87641196  0.87455946     0.20100
C3060       C  0.38562444  0.86116602  0.87049906     0.02200
C3061       C  0.38527076  0.85770324  0.85521609    -0.13900
C3062       C  0.38492896  0.86890106  0.84450310    -0.11600
C3063       C  0.38471327  0.88381872  0.84863331     0.01700
C3064       C  0.38488516  0.88752713  0.86364588    -0.23800
H3065       H  0.38645633  0.81266310  0.88750816     0.09700
H3066       H  0.38619582  0.83033273  0.86784770     0.13300
H3067       H  0.38655279  0.84771967  0.91978865     0.12000
H3068       H  0.38668319  0.87327426  0.91198513     0.13200
H3069       H  0.38590901  0.89207552  0.89264068     0.12200
H3070       H  0.38529752  0.84647533  0.85117119     0.09300
H3071       H  0.38474602  0.86594246  0.83289597     0.12600
H3072       H  0.38481514  0.89913331  0.86676718     0.14500
C3073       C  0.33991154  0.58749495  0.90239674    -0.01100
C3074       C  0.35137306  0.57761843  0.89889535    -0.09100
C3075       C  0.34823085  0.56336109  0.89338777    -0.17900
C3076       C  0.33342942  0.55847418  0.89134268     0.04500
C3077       C  0.32195576  0.56891419  0.89406652     0.18700
C3078       C  0.32528192  0.58315816  0.89946718    -0.19300
C3079       C  0.30712853  0.56490396  0.89201402    -0.20600
C3080       C  0.30334012  0.55054045  0.88792310    -0.19100
C3081       C  0.31426291  0.53973354  0.88583151     0.20100
C3082       C  0.32948748  0.54355557  0.88724554     0.02200
C3083       C  0.33998042  0.53212708  0.88498784    -0.13900
C3084       C  0.33552383  0.51750757  0.88199999    -0.11600
C3085       C  0.32046278  0.51365937  0.88104322     0.01700
C3086       C  0.30994704  0.52502933  0.88270710    -0.23800
H3087       H  0.36275839  0.58061445  0.90115477     0.09700
H3088       H  0.35757855  0.55623039  0.89128737     0.13300
H3089       H  0.31633388  0.59074816  0.90206065     0.12000
H3090       H  0.29834058  0.57286099  0.89393541     0.13200
H3091       H  0.29172447  0.54777148  0.88674244     0.12200
H3092       H  0.35172766  0.53410863  0.88572187     0.09300
H3093       H  0.34402026  0.50917773  0.88059463     0.12600
H3094       H  0.29827184  0.52244909  0.88193503     0.14500
C3095       C  0.35961385  0.63595502  0.92284896    -0.01100
C3096       C  0.36502966  0.63932706  0.93698390    -0.09100
C3097       C  0.36960790  0.65368878  0.94061298    -0.17900
C3098       C  0.36860992  0.66542301  0.93024469     0.04500
C3099       C  0.36376016  0.66184390  0.91567662     0.18700
C3100       C  0.35946929  0.64718402  0.91207196    -0.19300
C3101       C  0.36260684  0.67306464  0.90499347    -0.20600
C3102       C  0.36571939  0.68778951  0.90854494    -0.19100
C3103       C  0.37007295  0.69176194  0.92289781     0.20100
C3104       C  0.37176503  0.68061327  0.93391595     0.02200
C3105       C  0.37616359  0.68524146  0.94821717    -0.13900
C3106       C  0.37849120  0.70024486  0.95149604    -0.11600
C3107       C  0.37661372  0.71132312  0.94071273     0.01700
C3108       C  0.37251792  0.70686332  0.92633889    -0.23800
H3109       H  0.36520945  0.63084802  0.94549679     0.09700
H3110       H  0.37340900  0.65533724  0.95179496     0.13300
H3111       H  0.35508633  0.64474399  0.90117031     0.12000
H3112       H  0.35898593  0.67047829  0.89385564     0.13200
H3113       H  0.36447375  0.69618461  0.90003365     0.12200
H3114       H  0.37777865  0.67753279  0.95720189     0.09300
H3115       H  0.38174686  0.70309752  0.96264778     0.12600
H3116       H  0.37101269  0.71513470  0.91776952     0.14500
C3117       C  0.43291710  0.64155931  0.64970140    -0.01100
C3118       C  0.42128257  0.64099749  0.65988015    -0.09100
C3119       C  0.42377012  0.63605304  0.67438296    -0.17900
C3120       C  0.43806791  0.63154205  0.67907733     0.04500
C3121       C  0.44949947  0.63113753  0.66828296     0.18700
C3122       C  0.44685031  0.63620536  0.65384125    -0.19300
C3123       C  0.46369668  0.62623935  0.67208463    -0.20600
C3124       C  0.46701515  0.62227437  0.68656296    -0.19100
C3125       C  0.45628614  0.62333904  0.69765632     0.20100
C3126       C  0.44160806  0.62784420  0.69409704     0.02200
C3127       C  0.43133081  0.62896233  0.70582876    -0.13900
C3128       C  0.43554188  0.62599130  0.72044720    -0.11600
C3129       C  0.45008950  0.62172173  0.72392778     0.01700
C3130       C  0.46031474  0.62024271  0.71236468    -0.23800
H3131       H  0.41043121  0.64513039  0.65684221     0.09700
H3132       H  0.41439830  0.63622852  0.68175134     0.13300
H3133       H  0.45583701  0.63655445  0.64589534     0.12000
H3134       H  0.47238974  0.62573438  0.66384501     0.13200
H3135       H  0.47818927  0.61874092  0.68917820     0.12200
H3136       H  0.42003351  0.63242332  0.70410449     0.09300
H3137       H  0.42735161  0.62732633  0.72905947     0.12600
H3138       H  0.47155545  0.61681294  0.71476489     0.14500
C3139       C  0.53697544  0.60644944  0.81045574    -0.01100
C3140       C  0.54036320  0.60290535  0.82521116    -0.09100
C3141       C  0.55486036  0.59971764  0.82959018    -0.17900
C3142       C  0.56661306  0.59985765  0.81929413     0.04500
C3143       C  0.56323032  0.60373631  0.80440071     0.18700
C3144       C  0.54859928  0.60709848  0.80017886    -0.19300
C3145       C  0.57440535  0.60383889  0.79368906    -0.20600
C3146       C  0.58873876  0.59950047  0.79728368    -0.19100
C3147       C  0.59232445  0.59518250  0.81173384     0.20100
C3148       C  0.58146542  0.59576329  0.82308895     0.02200
C3149       C  0.58589454  0.59178594  0.83761948    -0.13900
C3150       C  0.60018925  0.58650353  0.84049296    -0.11600
C3151       C  0.61047754  0.58506565  0.82904049     0.01700
C3152       C  0.60659293  0.58976722  0.81477795    -0.23800
H3153       H  0.53176656  0.60226802  0.83349452     0.09700
H3154       H  0.55643575  0.59683616  0.84105680     0.13300
H3155       H  0.54628981  0.60994798  0.78876525     0.12000
H3156       H  0.57195330  0.60689299  0.78234331     0.13200
H3157       H  0.59702644  0.59926467  0.78862469     0.12200
H3158       H  0.57848224  0.59231151  0.84693142     0.09300
H3159       H  0.60297393  0.58284342  0.85157570     0.12600
H3160       H  0.61459828  0.58871927  0.80590463     0.14500
C3161       C  0.41909679  0.61193556  0.84130663    -0.01100
C3162       C  0.40430461  0.60930160  0.83740724    -0.09100
C3163       C  0.39312078  0.60939044  0.84804729    -0.17900
C3164       C  0.39632254  0.61214305  0.86310651     0.04500
C3165       C  0.41135322  0.61462489  0.86708826     0.18700
C3166       C  0.42251160  0.61453418  0.85623995    -0.19300
C3167       C  0.41517376  0.61716606  0.88188641    -0.20600
C3168       C  0.40439523  0.61721945  0.89285941    -0.19100
C3169       C  0.38949689  0.61486815  0.88930312     0.20100
C3170       C  0.38519985  0.61240980  0.87435910     0.02200
C3171       C  0.36995260  0.61033376  0.87136515    -0.13900
C3172       C  0.35952422  0.61036675  0.88275295    -0.11600
C3173       C  0.36387329  0.61247666  0.89744635     0.01700
C3174       C  0.37885791  0.61486409  0.90063910    -0.23800
H3175       H  0.40126309  0.60702753  0.82605908     0.09700
H3176       H  0.38208334  0.60716823  0.84410777     0.13300
H3177       H  0.43386252  0.61663147  0.85948956     0.12000
H3178       H  0.42660631  0.61905388  0.88501585     0.13200
H3179       H  0.40773930  0.61912707  0.90421885     0.12200
H3180       H  0.36570434  0.60867133  0.86035204     0.09300
H3181       H  0.34794955  0.60873631  0.88008955     0.12600
H3182       H  0.38224693  0.61643180  0.91203823     0.14500
C3183       C  0.66189438  0.83860842  0.92038139    -0.01100
C3184       C  0.65771057  0.82888014  0.90904395    -0.09100
C3185       C  0.65319201  0.81430223  0.91230796    -0.17900
C3186       C  0.65300709  0.80890272  0.92707658     0.04500
C3187       C  0.65671059  0.81905347  0.93849975     0.18700
C3188       C  0.66082566  0.83367352  0.93508530    -0.19300
C3189       C  0.65686104  0.81445198  0.95329742    -0.20600
C3190       C  0.65367045  0.79986098  0.95705585    -0.19100
C3191       C  0.65017151  0.78946503  0.94613170     0.20100
C3192       C  0.64967135  0.79380150  0.93098364     0.02200
C3193       C  0.64610160  0.78274862  0.92048578    -0.13900
C3194       C  0.64326211  0.76807883  0.92485181    -0.11600
C3195       C  0.64384218  0.76381947  0.93981949     0.01700
C3196       C  0.64728720  0.77470677  0.95035378    -0.23800
H3197       H  0.65866278  0.83224210  0.89758296     0.09700
H3198       H  0.65040584  0.80735670  0.90301914     0.13300
H3199       H  0.66392351  0.84111940  0.94397939     0.12000
H3200       H  0.65971005  0.82215675  0.96204254     0.13200
H3201       H  0.65406427  0.79665506  0.96861609     0.12200
H3202       H  0.64546282  0.78510292  0.90880380     0.09300
H3203       H  0.64058202  0.76007877  0.91636362     0.12600
H3204       H  0.64786934  0.77174682  0.96195186     0.14500
C3205       C  0.48291221  0.86827457  0.80649037    -0.01100
C3206       C  0.47883808  0.86905818  0.82147503    -0.09100
C3207       C  0.46419940  0.87207356  0.82565987    -0.17900
C3208       C  0.45303240  0.87451578  0.81494041     0.04500
C3209       C  0.45711031  0.87321228  0.79979215     0.18700
C3210       C  0.47181882  0.87007845  0.79575889    -0.19300
C3211       C  0.44656203  0.87540538  0.78865790    -0.20600
C3212       C  0.43214417  0.87937410  0.79217317    -0.19100
C3213       C  0.42787278  0.88126907  0.80691771     0.20100
C3214       C  0.43810902  0.87861174  0.81858998     0.02200
C3215       C  0.43302445  0.88070108  0.83328821    -0.13900
C3216       C  0.41868268  0.88600612  0.83614264    -0.11600
C3217       C  0.40894941  0.88923361  0.82448476     0.01700
C3218       C  0.41353514  0.88640981  0.80996352    -0.23800
H3219       H  0.48699550  0.86745809  0.83010356     0.09700
H3220       H  0.46199810  0.87262897  0.83736516     0.13300
H3221       H  0.47463804  0.86947331  0.78414030     0.12000
H3222       H  0.44955818  0.87433235  0.77710172     0.13200
H3223       H  0.42434690  0.88130880  0.78324601     0.12200
H3224       H  0.44003581  0.87879884  0.84276660     0.09300
H3225       H  0.41550114  0.88830167  0.84745317     0.12600
H3226       H  0.40603724  0.88883202  0.80088554     0.14500
C3227       C  0.60036572  0.86343226  0.83896312    -0.01100
C3228       C  0.59600984  0.86201321  0.85379998    -0.09100
C3229       C  0.60644108  0.86186877  0.86525638    -0.17900
C3230       C  0.62175206  0.86318876  0.86230206     0.04500
C3231       C  0.62615060  0.86474064  0.84726566     0.18700
C3232       C  0.61552479  0.86480610  0.83583372    -0.19300
C3233       C  0.64115255  0.86622157  0.84369691    -0.20600
C3234       C  0.65191238  0.86619389  0.85471840    -0.19100
C3235       C  0.64798003  0.86461689  0.86961087     0.20100
C3236       C  0.63285242  0.86303229  0.87366914     0.02200
C3237       C  0.62956690  0.86131386  0.88891264    -0.13900
C3238       C  0.64082595  0.86119414  0.89958432    -0.11600
C3239       C  0.65565154  0.86287382  0.89547794     0.01700
C3240       C  0.65913783  0.86459273  0.88047849    -0.23800
H3241       H  0.58444994  0.86081826  0.85666757     0.09700
H3242       H  0.60215502  0.86069959  0.87630720     0.13300
H3243       H  0.61912368  0.86605757  0.82447561     0.12000
H3244       H  0.64460229  0.86742554  0.83227772     0.13200
H3245       H  0.66342075  0.86738495  0.85155731     0.12200
H3246       H  0.61843081  0.86001622  0.89294029     0.09300
H3247       H  0.63795411  0.85994582  0.91114905     0.12600
H3248       H  0.67063879  0.86577603  0.87728707     0.14500
C3249       C  0.56991686  0.85168511  0.72027810    -0.01100
C3250       C  0.55937895  0.85244391  0.70887822    -0.09100
C3251       C  0.56343775  0.85055133  0.69406419    -0.17900
C3252       C  0.57830260  0.84773520  0.69000899     0.04500
C3253       C  0.58900401  0.84703006  0.70152508     0.18700
C3254       C  0.58477283  0.84904550  0.71640427    -0.19300
C3255       C  0.60385446  0.84407853  0.69815068    -0.20600
C3256       C  0.60825086  0.84136114  0.68363527    -0.19100
C3257       C  0.59793979  0.84160545  0.67205867     0.20100
C3258       C  0.58286255  0.84514136  0.67503669     0.02200
C3259       C  0.57292904  0.84544672  0.66293811    -0.13900
C3260       C  0.57748684  0.84122937  0.64880507    -0.11600
C3261       C  0.59211152  0.83689466  0.64608834     0.01700
C3262       C  0.60245373  0.83765191  0.65763333    -0.23800
H3263       H  0.54785010  0.85451964  0.71132516     0.09700
H3264       H  0.55461215  0.85119998  0.68605933     0.13300
H3265       H  0.59313452  0.84833945  0.72496506     0.12000
H3266       H  0.61210706  0.84358790  0.70685464     0.13200
H3267       H  0.61976530  0.83876819  0.68149044     0.12200
H3268       H  0.56143622  0.84840671  0.66410705     0.09300
H3269       H  0.56934440  0.84074663  0.64000267     0.12600
H3270       H  0.61376219  0.83416227  0.65562222     0.14500
C3271       C  0.67224274  0.90019994  0.62427065    -0.01100
C3272       C  0.65742150  0.90392660  0.62703158    -0.09100
C3273       C  0.64632687  0.89315546  0.62689835    -0.17900
C3274       C  0.64964645  0.87812170  0.62399082     0.04500
C3275       C  0.66467665  0.87433709  0.62123099     0.18700
C3276       C  0.67574253  0.88531216  0.62137605    -0.19300
C3277       C  0.66860033  0.85960187  0.61834600    -0.20600
C3278       C  0.65791846  0.84850685  0.61814999    -0.19100
C3279       C  0.64302767  0.85186111  0.62079239     0.20100
C3280       C  0.63863481  0.86671446  0.62374414     0.02200
C3281       C  0.62341136  0.86945847  0.62629423    -0.13900
C3282       C  0.61306377  0.85794576  0.62592674    -0.11600
C3283       C  0.61747795  0.84336694  0.62302803     0.01700
C3284       C  0.63248450  0.84040974  0.62048900    -0.23800
H3285       H  0.65425243  0.91523516  0.62942143     0.09700
H3286       H  0.63526737  0.89697812  0.62916239     0.13300
H3287       H  0.68709011  0.88217447  0.61915419     0.12000
H3288       H  0.68002942  0.85662408  0.61623838     0.13200
H3289       H  0.66133199  0.83720933  0.61588852     0.12200
H3290       H  0.61911578  0.88036850  0.62852666     0.09300
H3291       H  0.60148659  0.86047349  0.62771108     0.12600
H3292       H  0.63596023  0.82910024  0.61840624     0.14500
C3293       C  0.82102629  0.01280950  0.38861363    -0.01100
C3294       C  0.80998187  0.02373915  0.38783410    -0.09100
C3295       C  0.81336542  0.03878700  0.38943963    -0.17900
C3296       C  0.82804518  0.04361503  0.39199293     0.04500
C3297       C  0.83929613  0.03260843  0.39269038     0.18700
C3298       C  0.83574079  0.01743730  0.39094087    -0.19300
C3299       C  0.85399867  0.03680548  0.39538889    -0.20600
C3300       C  0.85769045  0.05161459  0.39792774    -0.19100
C3301       C  0.84681335  0.06269624  0.39771924     0.20100
C3302       C  0.83188330  0.05888414  0.39435075     0.02200
C3303       C  0.82136102  0.07048716  0.39395867    -0.13900
C3304       C  0.82521863  0.08493298  0.39793512    -0.11600
C3305       C  0.83969823  0.08850903  0.40218890     0.01700
C3306       C  0.85061138  0.07744530  0.40152308    -0.23800
H3307       H  0.79854778  0.02074660  0.38595116     0.09700
H3308       H  0.80415197  0.04635784  0.38880489     0.13300
H3309       H  0.84448407  0.00924374  0.39163546     0.12000
H3310       H  0.86268535  0.02852001  0.39585097     0.13200
H3311       H  0.86911235  0.05437948  0.40035295     0.12200
H3312       H  0.80992181  0.06869645  0.39108369     0.09300
H3313       H  0.81662029  0.09330974  0.39832971     0.12600
H3314       H  0.86181704  0.08007624  0.40493683     0.14500
C3315       C  0.85418611  0.89500086  0.37567239    -0.01100
C3316       C  0.85083917  0.87982794  0.37665085    -0.09100
C3317       C  0.86206690  0.86910357  0.37679784    -0.17900
C3318       C  0.87716506  0.87317576  0.37591079     0.04500
C3319       C  0.88050923  0.88853656  0.37461329     0.18700
C3320       C  0.86911964  0.89919294  0.37456717    -0.19300
C3321       C  0.89522666  0.89322163  0.37335526    -0.20600
C3322       C  0.90674021  0.88299213  0.37332292    -0.19100
C3323       C  0.90386758  0.86781010  0.37473940     0.20100
C3324       C  0.88906144  0.86263392  0.37619480     0.02200
C3325       C  0.88689034  0.84716581  0.37797713    -0.13900
C3326       C  0.89889534  0.83733119  0.37816327    -0.11600
C3327       C  0.91338993  0.84253482  0.37650655     0.01700
C3328       C  0.91577678  0.85777868  0.37479459    -0.23800
H3329       H  0.83947885  0.87614361  0.37750005     0.09700
H3330       H  0.85856506  0.85770064  0.37758122     0.13300
H3331       H  0.87198600  0.91081294  0.37356773     0.12000
H3332       H  0.89786149  0.90490859  0.37233284     0.13200
H3333       H  0.91799924  0.88700226  0.37226092     0.12200
H3334       H  0.87606455  0.84234121  0.37934088     0.09300
H3335       H  0.89686226  0.82556601  0.37946999     0.12600
H3336       H  0.92702119  0.86183461  0.37372887     0.14500
C3337       C  0.73482607  0.92792954  0.36940920    -0.01100
C3338       C  0.72466034  0.93962011  0.36788132    -0.09100
C3339       C  0.70987705  0.93700982  0.36411348    -0.17900
C3340       C  0.70453219  0.92247833  0.36166504     0.04500
C3341       C  0.71468508  0.91055722  0.36349187     0.18700
C3342       C  0.72961915  0.91334787  0.36733860    -0.19300
C3343       C  0.70990551  0.89593652  0.36123437    -0.20600
C3344       C  0.69541317  0.89293082  0.35678458    -0.19100
C3345       C  0.68523868  0.90444649  0.35448987     0.20100
C3346       C  0.68960093  0.91938420  0.35715242     0.02200
C3347       C  0.67891702  0.93060741  0.35480545    -0.13900
C3348       C  0.66485535  0.92724300  0.34934308    -0.11600
C3349       C  0.66073267  0.91261460  0.34610072     0.01700
C3350       C  0.67089869  0.90118405  0.34905046    -0.23800
H3351       H  0.72810308  0.95100313  0.36934881     0.09700
H3352       H  0.70295404  0.94668627  0.36303244     0.13300
H3353       H  0.73718910  0.90410890  0.36857931     0.12000
H3354       H  0.71750910  0.88674647  0.36269459     0.13200
H3355       H  0.69220831  0.88150566  0.35489198     0.12200
H3356       H  0.68116476  0.94217642  0.35674864     0.09300
H3357       H  0.65722075  0.93627751  0.34722132     0.12600
H3358       H  0.66796597  0.88984646  0.34636528     0.14500
C3359       C  0.64193286  0.71257478  0.43732038    -0.01100
C3360       C  0.64330464  0.70851923  0.42236914    -0.09100
C3361       C  0.64597722  0.69376098  0.41827113    -0.17900
C3362       C  0.64747793  0.68245728  0.42904826     0.04500
C3363       C  0.64550492  0.68652504  0.44412096     0.18700
C3364       C  0.64270305  0.70134175  0.44805707    -0.19300
C3365       C  0.64674700  0.67585588  0.45530811    -0.20600
C3366       C  0.65051988  0.66132525  0.45195670    -0.19100
C3367       C  0.65311768  0.65705457  0.43732356     0.20100
C3368       C  0.65132499  0.66740635  0.42556255     0.02200
C3369       C  0.65401865  0.66229821  0.41097578    -0.13900
C3370       C  0.65910433  0.64781313  0.40835823    -0.11600
C3371       C  0.66147328  0.63795219  0.42013687     0.01700
C3372       C  0.65807582  0.64258279  0.43450884    -0.23800
H3373       H  0.64254816  0.71677777  0.41370893     0.09700
H3374       H  0.64708202  0.69157949  0.40659881     0.13300
H3375       H  0.64149790  0.70409833  0.45964096     0.12000
H3376       H  0.64513275  0.67884962  0.46680337     0.13200
H3377       H  0.65175938  0.65343598  0.46094077     0.12200
H3378       H  0.65274092  0.66937999  0.40143133     0.09300
H3379       H  0.66183007  0.64455659  0.39716226     0.12600
H3380       H  0.65984326  0.63498231  0.44366548     0.14500
C3381       C  0.63164987  0.80025592  0.52384374    -0.01100
C3382       C  0.63670336  0.79113702  0.53537196    -0.09100
C3383       C  0.63468419  0.79517382  0.55018883    -0.17900
C3384       C  0.62728082  0.80847280  0.55402925     0.04500
C3385       C  0.62244761  0.81783687  0.54230157     0.18700
C3386       C  0.62477117  0.81374545  0.52745771    -0.19300
C3387       C  0.61494114  0.83106002  0.54542694    -0.20600
C3388       C  0.61164469  0.83496526  0.55994020    -0.19100
C3389       C  0.61580814  0.82578252  0.57173726     0.20100
C3390       C  0.62398321  0.81255386  0.56900017     0.02200
C3391       C  0.62789022  0.80367894  0.58133913    -0.13900
C3392       C  0.62284153  0.80714919  0.59553451    -0.11600
C3393       C  0.61417832  0.81975696  0.59800937     0.01700
C3394       C  0.61114355  0.82933410  0.58618230    -0.23800
H3395       H  0.64226577  0.78078199  0.53295706     0.09700
H3396       H  0.63882827  0.78752108  0.55837025     0.13300
H3397       H  0.62072213  0.82090524  0.51870475     0.12000
H3398       H  0.61128004  0.83828406  0.53654650     0.13200
H3399       H  0.60546678  0.84507719  0.56192257     0.12200
H3400       H  0.63429591  0.79365674  0.58030753     0.09300
H3401       H  0.62514919  0.79956269  0.60456256     0.12600
H3402       H  0.60419807  0.83896635  0.58805298     0.14500
C3403       C  0.63739350  0.83067430  0.40542118    -0.01100
C3404       C  0.63543548  0.82670543  0.39055181    -0.09100
C3405       C  0.63551597  0.83741215  0.37935248    -0.17900
C3406       C  0.63758052  0.85260760  0.38261796     0.04500
C3407       C  0.63981689  0.85658752  0.39767408     0.18700
C3408       C  0.63966951  0.84568637  0.40884875    -0.19300
C3409       C  0.64211330  0.87144888  0.40151763    -0.20600
C3410       C  0.64204788  0.88250365  0.39075821    -0.19100
C3411       C  0.63963244  0.87900333  0.37587143     0.20100
C3412       C  0.63740898  0.86399659  0.37154666     0.02200
C3413       C  0.63497138  0.86110352  0.35634848    -0.13900
C3414       C  0.63466432  0.87260521  0.34597416    -0.11600
C3415       C  0.63681405  0.88733137  0.35031174     0.01700
C3416       C  0.63933041  0.89045673  0.36527758    -0.23800
H3417       H  0.63360319  0.81526115  0.38747981     0.09700
H3418       H  0.63386232  0.83341382  0.36824419     0.13300
H3419       H  0.64141015  0.84895835  0.42024434     0.12000
H3420       H  0.64390230  0.87456484  0.41295794     0.13200
H3421       H  0.64379825  0.89390243  0.39412662     0.12200
H3422       H  0.63322316  0.85008040  0.35210553     0.09300
H3423       H  0.63289099  0.86998088  0.33442255     0.12600
H3424       H  0.64089738  0.90187705  0.36866816     0.14500
C3425       C  0.86266282  0.91354868  0.65265138    -0.01100
C3426       C  0.85996743  0.92814135  0.64806668    -0.09100
C3427       C  0.84621579  0.93231123  0.64237161    -0.17900
C3428       C  0.83448137  0.92199499  0.64136511     0.04500
C3429       C  0.83745565  0.90702608  0.64550368     0.18700
C3430       C  0.85151096  0.90291375  0.65093940    -0.19300
C3431       C  0.82619442  0.89639992  0.64480432    -0.20600
C3432       C  0.81193264  0.90037425  0.64052208    -0.19100
C3433       C  0.80854604  0.91507835  0.63679443     0.20100
C3434       C  0.81980112  0.92607791  0.63693251     0.02200
C3435       C  0.81574240  0.94073955  0.63301509    -0.13900
C3436       C  0.80107720  0.94437783  0.62960474    -0.11600
C3437       C  0.78990712  0.93358362  0.62987995     0.01700
C3438       C  0.79385680  0.91887946  0.63324715    -0.23800
H3439       H  0.86846177  0.93652318  0.64936701     0.09700
H3440       H  0.84499909  0.94380838  0.63932309     0.13300
H3441       H  0.85347276  0.89165682  0.65472004     0.12000
H3442       H  0.82835526  0.88497755  0.64789329     0.13200
H3443       H  0.80341606  0.89191089  0.64036749     0.12200
H3444       H  0.82360492  0.94971614  0.63263888     0.09300
H3445       H  0.79852878  0.95577492  0.62682724     0.12600
H3446       H  0.78545109  0.91033394  0.63352174     0.14500
C3447       C  0.90968738  0.89159919  0.67287544    -0.01100
C3448       C  0.91996185  0.89027692  0.66138253    -0.09100
C3449       C  0.93430289  0.88501967  0.66419041    -0.17900
C3450       C  0.93881052  0.88103510  0.67870354     0.04500
C3451       C  0.92795354  0.88147506  0.69006945     0.18700
C3452       C  0.91361003  0.88669485  0.68705811    -0.19300
C3453       C  0.93165836  0.87743498  0.70456567    -0.20600
C3454       C  0.94615153  0.87378884  0.70825736    -0.19100
C3455       C  0.95732445  0.87411102  0.69755185     0.20100
C3456       C  0.95377508  0.87732456  0.68253731     0.02200
C3457       C  0.96548722  0.87727972  0.67218539    -0.13900
C3458       C  0.98013580  0.87495122  0.67668059    -0.11600
C3459       C  0.98370900  0.87248803  0.69161607     0.01700
C3460       C  0.97210715  0.87169651  0.70190661    -0.23800
H3461       H  0.91717213  0.89411046  0.65035888     0.09700
H3462       H  0.94175496  0.88472953  0.65489627     0.13300
H3463       H  0.90563492  0.88765975  0.69596838     0.12000
H3464       H  0.92337173  0.87755430  0.71322744     0.13200
H3465       H  0.94871948  0.87113916  0.71967912     0.12200
H3466       H  0.96373364  0.87934716  0.66056687     0.09300
H3467       H  0.98870482  0.87548361  0.66835854     0.12600
H3468       H  0.97454897  0.86949986  0.71343841     0.14500
C3469       C  0.88532890  0.71407005  0.56145649    -0.01100
C3470       C  0.88616747  0.70284860  0.55076647    -0.09100
C3471       C  0.88266969  0.68816555  0.55424402    -0.17900
C3472       C  0.87808406  0.68408705  0.56863878     0.04500
C3473       C  0.87802703  0.69527335  0.57969219     0.18700
C3474       C  0.88164376  0.71004667  0.57604690    -0.19300
C3475       C  0.87395350  0.69172344  0.59423039    -0.20600
C3476       C  0.86935324  0.67743472  0.59790081    -0.19100
C3477       C  0.86855239  0.66634700  0.58710140     0.20100
C3478       C  0.87312097  0.66946092  0.57234320     0.02200
C3479       C  0.87182122  0.65799176  0.56176951    -0.13900
C3480       C  0.86544025  0.64440117  0.56546552    -0.11600
C3481       C  0.86050351  0.64156545  0.57984580     0.01700
C3482       C  0.86251263  0.65238617  0.59076863    -0.23800
H3483       H  0.88933914  0.70536354  0.53950932     0.09700
H3484       H  0.88350442  0.68029876  0.54532178     0.13300
H3485       H  0.88114542  0.71844654  0.58457485     0.12000
H3486       H  0.87403538  0.70014281  0.60277507     0.13200
H3487       H  0.86596821  0.67516204  0.60918085     0.12200
H3488       H  0.87504472  0.65935716  0.55037456     0.09300
H3489       H  0.86388516  0.63617179  0.55688056     0.12600
H3490       H  0.85846424  0.65029254  0.60187087     0.14500
C3491       C  0.89974283  0.79920342  0.47409316    -0.01100
C3492       C  0.90189311  0.78784324  0.46371712    -0.09100
C3493       C  0.90490095  0.79102823  0.44888785    -0.17900
C3494       C  0.90595418  0.80582029  0.44376781     0.04500
C3495       C  0.90344614  0.81735774  0.45416535     0.18700
C3496       C  0.90033829  0.81398563  0.46909653    -0.19300
C3497       C  0.90435721  0.83221312  0.44966062    -0.20600
C3498       C  0.90823188  0.83587335  0.43519176    -0.19100
C3499       C  0.91126230  0.82478627  0.42480290     0.20100
C3500       C  0.90984787  0.80958029  0.42885400     0.02200
C3501       C  0.91290526  0.79881244  0.41792076    -0.13900
C3502       C  0.91812556  0.80293544  0.40398346    -0.11600
C3503       C  0.92023523  0.81787588  0.40028208     0.01700
C3504       C  0.91632819  0.82879415  0.41058098    -0.23800
H3505       H  0.90146669  0.77631867  0.46700591     0.09700
H3506       H  0.90655940  0.78161086  0.44175839     0.13300
H3507       H  0.89859682  0.82296680  0.47683450     0.12000
H3508       H  0.90235278  0.84109077  0.45747351     0.13200
H3509       H  0.90917050  0.84748249  0.43219129     0.12200
H3510       H  0.91181979  0.78707564  0.41991326     0.09300
H3511       H  0.92102399  0.79432121  0.39615786     0.12600
H3512       H  0.91812436  0.84037695  0.40787617     0.14500
C3513       C  0.88857156  0.83209546  0.59256462    -0.01100
C3514       C  0.89031272  0.82792730  0.60742396    -0.09100
C3515       C  0.88956226  0.83839469  0.61875314    -0.17900
C3516       C  0.88701822  0.85355998  0.61565511     0.04500
C3517       C  0.88526507  0.85779941  0.60059130     0.18700
C3518       C  0.88607948  0.84712133  0.58926396    -0.19300
C3519       C  0.88271330  0.87268284  0.59691595    -0.20600
C3520       C  0.88201092  0.88349554  0.60786566    -0.19100
C3521       C  0.88383771  0.87971671  0.62278791     0.20100
C3522       C  0.88626782  0.86466895  0.62692240     0.02200
C3523       C  0.88793427  0.86143442  0.64215710    -0.13900
C3524       C  0.88752469  0.87266587  0.65273984    -0.11600
C3525       C  0.88546482  0.88748181  0.64860239     0.01700
C3526       C  0.88344133  0.89092819  0.63360854    -0.23800
H3527       H  0.89241125  0.81649800  0.61042112     0.09700
H3528       H  0.89108040  0.83422026  0.62983190     0.13300
H3529       H  0.88461459  0.85056210  0.57786598     0.12000
H3530       H  0.88131752  0.87600575  0.58546596     0.13200
H3531       H  0.88010612  0.89492149  0.60462573     0.12200
H3532       H  0.88963728  0.85034581  0.64629028     0.09300
H3533       H  0.88885954  0.86977467  0.66429835     0.12600
H3534       H  0.88191666  0.90240675  0.63035323     0.14500
C3535       C  0.85921008  0.84055909  0.07737937    -0.01100
C3536       C  0.86319598  0.83754013  0.06273026    -0.09100
C3537       C  0.86858313  0.82365324  0.05863122    -0.17900
C3538       C  0.86996806  0.81205731  0.06908507     0.04500
C3539       C  0.86666494  0.81535070  0.08412966     0.18700
C3540       C  0.86143524  0.82956337  0.08816701    -0.19300
C3541       C  0.86794593  0.80422109  0.09489377    -0.20600
C3542       C  0.87174684  0.78975919  0.09095562    -0.19100
C3543       C  0.87437448  0.78601417  0.07613742     0.20100
C3544       C  0.87387868  0.79719482  0.06504383     0.02200
C3545       C  0.87681323  0.79288962  0.05029790    -0.13900
C3546       C  0.87935522  0.77806706  0.04661590    -0.11600
C3547       C  0.87917978  0.76688395  0.05742070     0.01700
C3548       C  0.87706425  0.77107658  0.07227909    -0.23800
H3549       H  0.86162290  0.84588891  0.05422910     0.09700
H3550       H  0.87107690  0.82223751  0.04706582     0.13300
H3551       H  0.85819853  0.83173904  0.09950592     0.12000
H3552       H  0.86560253  0.80662319  0.10640199     0.13200
H3553       H  0.87227374  0.78135530  0.09953130     0.12200
H3554       H  0.87698678  0.80067704  0.04124194     0.09300
H3555       H  0.88128290  0.77542483  0.03511768     0.12600
H3556       H  0.87705577  0.76269796  0.08087619     0.14500
C3557       C  0.93812173  0.84032545  0.35261998    -0.01100
C3558       C  0.95106516  0.84810868  0.34917905    -0.09100
C3559       C  0.95386612  0.85286988  0.33472234    -0.17900
C3560       C  0.94394655  0.84950441  0.32306692     0.04500
C3561       C  0.93050126  0.84215443  0.32678791     0.18700
C3562       C  0.92760663  0.83789045  0.34150871    -0.19300
C3563       C  0.92040430  0.83834687  0.31567321    -0.20600
C3564       C  0.92360435  0.84112209  0.30087054    -0.19100
C3565       C  0.93693973  0.84788985  0.29677738     0.20100
C3566       C  0.94717398  0.85248603  0.30781764     0.02200
C3567       C  0.96039129  0.85940720  0.30304060    -0.13900
C3568       C  0.96355057  0.86112755  0.28798204    -0.11600
C3569       C  0.95366064  0.85615339  0.27709119     0.01700
C3570       C  0.94022857  0.84976972  0.28165702    -0.23800
H3571       H  0.95935832  0.84998077  0.35764516     0.09700
H3572       H  0.96419948  0.85854957  0.33292689     0.13300
H3573       H  0.91769695  0.83162376  0.34411201     0.12000
H3574       H  0.91013076  0.83278291  0.31841124     0.13200
H3575       H  0.91569326  0.83768443  0.29252890     0.12200
H3576       H  0.96860302  0.86349219  0.31066594     0.09300
H3577       H  0.97386085  0.86639141  0.28491131     0.12600
H3578       H  0.93240628  0.84586809  0.27345269     0.14500
C3579       C  0.86333144  0.86336805  0.10338431    -0.01100
C3580       C  0.85898163  0.86466086  0.11816828    -0.09100
C3581       C  0.86939964  0.86399187  0.12958390    -0.17900
C3582       C  0.88464349  0.86208837  0.12652200     0.04500
C3583       C  0.88899432  0.86101553  0.11142932     0.18700
C3584       C  0.87834645  0.86153621  0.10007602    -0.19300
C3585       C  0.90395871  0.85954148  0.10774615    -0.20600
C3586       C  0.91475262  0.85917761  0.11872205    -0.19100
C3587       C  0.91085167  0.86005435  0.13368204     0.20100
C3588       C  0.89573449  0.86135138  0.13783330     0.02200
C3589       C  0.89242150  0.86178953  0.15312139    -0.13900
C3590       C  0.90364392  0.86123265  0.16377878    -0.11600
C3591       C  0.91856885  0.86027318  0.15964482     0.01700
C3592       C  0.92203041  0.85961541  0.14451957    -0.23800
H3593       H  0.84739373  0.86606525  0.12088206     0.09700
H3594       H  0.86517567  0.86511712  0.14066810     0.13300
H3595       H  0.88172587  0.86074410  0.08860116     0.12000
H3596       H  0.90735474  0.85876729  0.09627707     0.13200
H3597       H  0.92625487  0.85814378  0.11547741     0.12200
H3598       H  0.88124898  0.86250984  0.15722708     0.09300
H3599       H  0.90054814  0.86176133  0.17532298     0.12600
H3600       H  0.93347061  0.85862459  0.14108750     0.14500
C3601       C  0.92828887  0.14596538  0.14871957    -0.01100
C3602       C  0.91707774  0.14214708  0.15871460    -0.09100
C3603       C  0.92058976  0.13714010  0.17304228    -0.17900
C3604       C  0.93551207  0.13593013  0.17784832     0.04500
C3605       C  0.94676747  0.13896722  0.16729483     0.18700
C3606       C  0.94307455  0.14384047  0.15297972    -0.19300
C3607       C  0.96170526  0.13774677  0.17123986    -0.20600
C3608       C  0.96579001  0.13401572  0.18560249    -0.19100
C3609       C  0.95505404  0.13147151  0.19646133     0.20100
C3610       C  0.93975125  0.13225388  0.19275749     0.02200
C3611       C  0.92944933  0.12971497  0.20425391    -0.13900
C3612       C  0.93414610  0.12672025  0.21876181    -0.11600
C3613       C  0.94926901  0.12606882  0.22243256     0.01700
C3614       C  0.95961735  0.12837222  0.21106948    -0.23800
H3615       H  0.90557858  0.14384076  0.15576344     0.09700
H3616       H  0.91140263  0.13474976  0.18026436     0.13300
H3617       H  0.95182166  0.14672206  0.14527760     0.12000
H3618       H  0.97032955  0.13996631  0.16320570     0.13200
H3619       H  0.97746643  0.13337800  0.18830095     0.12200
H3620       H  0.91766464  0.13013071  0.20240161     0.09300
H3621       H  0.92577740  0.12494725  0.22711944     0.12600
H3622       H  0.97133383  0.12797065  0.21355597     0.14500
C3623       C  0.83975295  0.88838040  0.09863122    -0.01100
C3624       C  0.85141811  0.89845810  0.10033208    -0.09100
C3625       C  0.84867999  0.91301906  0.10509454    -0.17900
C3626       C  0.83408650  0.91792908  0.10818547     0.04500
C3627       C  0.82252527  0.90725792  0.10743272     0.18700
C3628       C  0.82545878  0.89272739  0.10272915    -0.19300
C3629       C  0.80793551  0.91129525  0.11067044    -0.20600
C3630       C  0.80439872  0.92589254  0.11401758    -0.19100
C3631       C  0.81533827  0.93686787  0.11409281     0.20100
C3632       C  0.83038551  0.93306351  0.11142128     0.02200
C3633       C  0.84089636  0.94468493  0.11155711    -0.13900
C3634       C  0.83655620  0.95944659  0.11374547    -0.11600
C3635       C  0.82162561  0.96320064  0.11597839     0.01700
C3636       C  0.81116646  0.95170560  0.11642520    -0.23800
H3637       H  0.86254275  0.89535531  0.09712489     0.09700
H3638       H  0.85811060  0.92031292  0.10575922     0.13300
H3639       H  0.81640630  0.88492164  0.10147833     0.12000
H3640       H  0.79911246  0.90316068  0.11025245     0.13200
H3641       H  0.79292979  0.92868980  0.11616237     0.12200
H3642       H  0.85252358  0.94274940  0.10970007     0.09300
H3643       H  0.84500269  0.96793445  0.11345789     0.12600
H3644       H  0.79960647  0.95424623  0.11826628     0.14500
C3645       C  0.85045347  0.08212626  0.12099952    -0.01100
C3646       C  0.86554429  0.07840236  0.12134891    -0.09100
C3647       C  0.87647775  0.08937587  0.12190451    -0.17900
C3648       C  0.87270504  0.10460061  0.12210042     0.04500
C3649       C  0.85742303  0.10835490  0.12145200     0.18700
C3650       C  0.84654438  0.09720068  0.12098699    -0.19300
C3651       C  0.85304094  0.12324812  0.12124480    -0.20600
C3652       C  0.86350276  0.13453919  0.12160602    -0.19100
C3653       C  0.87861732  0.13124463  0.12242280     0.20100
C3654       C  0.88348528  0.11623646  0.12285199     0.02200
C3655       C  0.89890247  0.11359785  0.12415849    -0.13900
C3656       C  0.90897642  0.12537178  0.12489229    -0.11600
C3657       C  0.90407191  0.14007020  0.12417742     0.01700
C3658       C  0.88889711  0.14292411  0.12291510    -0.23800
H3659       H  0.86903922  0.06692769  0.12133917     0.09700
H3660       H  0.88778111  0.08558082  0.12210988     0.13300
H3661       H  0.83499422  0.10036350  0.12052203     0.12000
H3662       H  0.84141935  0.12619795  0.12072634     0.13200
H3663       H  0.85972907  0.14595145  0.12134535     0.12200
H3664       H  0.90350215  0.10259210  0.12476629     0.09300
H3665       H  0.92069639  0.12301662  0.12585204     0.12600
H3666       H  0.88511210  0.15433058  0.12253638     0.14500
C3667       C  0.66481399  0.14039036  0.57908634    -0.01100
C3668       C  0.66018723  0.14320012  0.56459023    -0.09100
C3669       C  0.65453607  0.15702197  0.56056098    -0.17900
C3670       C  0.65366824  0.16871593  0.57093215     0.04500
C3671       C  0.65789687  0.16563520  0.58581285     0.18700
C3672       C  0.66324083  0.15147738  0.58979658    -0.19300
C3673       C  0.65737641  0.17688848  0.59645086    -0.20600
C3674       C  0.65319656  0.19124836  0.59255164    -0.19100
C3675       C  0.64935017  0.19472687  0.57792333     0.20100
C3676       C  0.64928771  0.18345811  0.56695330     0.02200
C3677       C  0.64519341  0.18753305  0.55239229    -0.13900
C3678       C  0.64177778  0.20221156  0.54879535    -0.11600
C3679       C  0.64224633  0.21343414  0.55950386     0.01700
C3680       C  0.64583214  0.20949003  0.57414682    -0.23800
H3681       H  0.66140424  0.13473483  0.55617953     0.09700
H3682       H  0.65144281  0.15830938  0.54912999     0.13300
H3683       H  0.66703737  0.14936551  0.60099225     0.12000
H3684       H  0.66053812  0.17464739  0.60781036     0.13200
H3685       H  0.65318906  0.19975424  0.60100902     0.12200
H3686       H  0.64463007  0.17968290  0.54345641     0.09300
H3687       H  0.63884114  0.20470066  0.53745724     0.12600
H3688       H  0.64620507  0.21792152  0.58264446     0.14500
C3689       C  0.68346838  0.09216459  0.59963089    -0.01100
C3690       C  0.67199663  0.08174530  0.59977008    -0.09100
C3691       C  0.67450200  0.06730634  0.60497365    -0.17900
C3692       C  0.68867634  0.06288636  0.61010744     0.04500
C3693       C  0.69997993  0.07384951  0.61065000     0.18700
C3694       C  0.69727002  0.08825806  0.60546825    -0.19300
C3695       C  0.71414799  0.07025012  0.61576962    -0.20600
C3696       C  0.71759006  0.05579958  0.61980151    -0.19100
C3697       C  0.70695701  0.04458060  0.61878917     0.20100
C3698       C  0.69225943  0.04795325  0.61420796     0.02200
C3699       C  0.68199942  0.03612872  0.61350227    -0.13900
C3700       C  0.68633010  0.02155204  0.61665436    -0.11600
C3701       C  0.70098307  0.01824091  0.62066525     0.01700
C3702       C  0.71111433  0.02992279  0.62200340    -0.23800
H3703       H  0.66127448  0.08455590  0.59517178     0.09700
H3704       H  0.66527688  0.05974841  0.60441386     0.13300
H3705       H  0.70614584  0.09636313  0.60539509     0.12000
H3706       H  0.72275009  0.07861091  0.61632093     0.13200
H3707       H  0.72877005  0.05331590  0.62341163     0.12200
H3708       H  0.67061797  0.03774468  0.61027894     0.09300
H3709       H  0.67818644  0.01282868  0.61556673     0.12600
H3710       H  0.72239968  0.02764034  0.62537291     0.14500
C3711       C  0.48320959  0.10824504  0.68807207    -0.01100
C3712       C  0.47205169  0.11039189  0.69861615    -0.09100
C3713       C  0.45723863  0.10754087  0.69524061    -0.17900
C3714       C  0.45300980  0.10227857  0.68112791     0.04500
C3715       C  0.46415233  0.10119465  0.67010367     0.18700
C3716       C  0.47905559  0.10415319  0.67364186    -0.19300
C3717       C  0.46041115  0.09670314  0.65574407    -0.20600
C3718       C  0.44594511  0.09263671  0.65226420    -0.19100
C3719       C  0.43490781  0.09265714  0.66312927     0.20100
C3720       C  0.43825825  0.09761819  0.67770188     0.02200
C3721       C  0.42690680  0.09688987  0.68843573    -0.13900
C3722       C  0.41310109  0.09087016  0.68502955    -0.11600
C3723       C  0.40993822  0.08576302  0.67077921     0.01700
C3724       C  0.42073468  0.08704869  0.65973387    -0.23800
H3725       H  0.47473300  0.11409782  0.70967412     0.09700
H3726       H  0.44937586  0.10941870  0.70399726     0.13300
H3727       H  0.48744565  0.10270350  0.66522213     0.12000
H3728       H  0.46879825  0.09605066  0.64720437     0.13200
H3729       H  0.44349499  0.08894012  0.64112272     0.12200
H3730       H  0.42853155  0.10026239  0.69975215     0.09300
H3731       H  0.40490232  0.08985675  0.69371174     0.12600
H3732       H  0.41838935  0.08284174  0.64874347     0.14500
C3733       C  0.60125931  0.11384654  0.65690417    -0.01100
C3734       C  0.59767795  0.11768294  0.64229666    -0.09100
C3735       C  0.60857757  0.11827603  0.63135277    -0.17900
C3736       C  0.62353189  0.11496717  0.63466686     0.04500
C3737       C  0.62710312  0.11111506  0.64951729     0.18700
C3738       C  0.61603477  0.11059501  0.66040000    -0.19300
C3739       C  0.64171955  0.10780286  0.65346511    -0.20600
C3740       C  0.65295160  0.10836045  0.64300342    -0.19100
C3741       C  0.64983724  0.11213680  0.62830575     0.20100
C3742       C  0.63507774  0.11538336  0.62385019     0.02200
C3743       C  0.63257000  0.11884977  0.60876536    -0.13900
C3744       C  0.64423668  0.11913132  0.59862427    -0.11600
C3745       C  0.65875240  0.11611174  0.60314867     0.01700
C3746       C  0.66145267  0.11267190  0.61802444    -0.23800
H3747       H  0.58640447  0.12042739  0.63927856     0.09700
H3748       H  0.60494504  0.12143166  0.62043975     0.13300
H3749       H  0.61897388  0.10747983  0.67160517     0.12000
H3750       H  0.64450435  0.10482459  0.66475531     0.13200
H3751       H  0.66416835  0.10579486  0.64643582     0.12200
H3752       H  0.62172562  0.12126401  0.60442299     0.09300
H3753       H  0.64187706  0.12155073  0.58712469     0.12600
H3754       H  0.67269557  0.11048563  0.62161366     0.14500
C3755       C  0.58991882  0.14095330  0.84759718    -0.01100
C3756       C  0.57526537  0.13683258  0.84472966    -0.09100
C3757       C  0.57108456  0.13131557  0.83096001    -0.17900
C3758       C  0.58147443  0.12995395  0.81937661     0.04500
C3759       C  0.59658326  0.13305432  0.82264820     0.18700
C3760       C  0.60068733  0.13851653  0.83670977    -0.19300
C3761       C  0.60735090  0.13126179  0.81166217    -0.20600
C3762       C  0.60338086  0.12693602  0.79739445    -0.19100
C3763       C  0.58850028  0.12458896  0.79364305     0.20100
C3764       C  0.57734019  0.12602743  0.80460161     0.02200
C3765       C  0.56245622  0.12404226  0.80016360    -0.13900
C3766       C  0.55880782  0.12086024  0.78549975    -0.11600
C3767       C  0.56977835  0.11945729  0.77463419     0.01700
C3768       C  0.58467458  0.12117964  0.77890296    -0.23800
H3769       H  0.56682002  0.13848205  0.85307189     0.09700
H3770       H  0.55955942  0.12856157  0.82965355     0.13300
H3771       H  0.61205101  0.14173636  0.83885492     0.12000
H3772       H  0.61890647  0.13343546  0.81405892     0.13200
H3773       H  0.61198294  0.12580983  0.78912698     0.12200
H3774       H  0.55329440  0.12521715  0.80767729     0.09300
H3775       H  0.54722315  0.11968923  0.78273307     0.12600
H3776       H  0.59336842  0.12016456  0.77074364     0.14500
C3777       C  0.69875398  0.96245940  0.88258509    -0.01100
C3778       C  0.68390644  0.95905488  0.88573866    -0.09100
C3779       C  0.67936003  0.94436533  0.88815238    -0.17900
C3780       C  0.68957186  0.93247402  0.88751772     0.04500
C3781       C  0.70454086  0.93597539  0.88407719     0.18700
C3782       C  0.70892496  0.95074570  0.88163287    -0.19300
C3783       C  0.71519271  0.92473877  0.88333501    -0.20600
C3784       C  0.71146823  0.91013310  0.88647249    -0.19100
C3785       C  0.69696914  0.90634322  0.89035161     0.20100
C3786       C  0.68566999  0.91732759  0.89059027     0.02200
C3787       C  0.67115263  0.91266062  0.89437023    -0.13900
C3788       C  0.66830122  0.89797754  0.89878988    -0.11600
C3789       C  0.67976513  0.88753440  0.89945068     0.01700
C3790       C  0.69391232  0.89170379  0.89468253    -0.23800
H3791       H  0.67573003  0.96778313  0.88659365     0.09700
H3792       H  0.66782864  0.94267481  0.89069893     0.13300
H3793       H  0.72038661  0.95306599  0.87902169     0.12000
H3794       H  0.72659001  0.92731049  0.88061822     0.13200
H3795       H  0.72009037  0.90177123  0.88617287     0.12200
H3796       H  0.66190886  0.92022591  0.89451400     0.09300
H3797       H  0.65731152  0.89503420  0.90256110     0.12600
H3798       H  0.70282303  0.88363962  0.89515701     0.14500
C3799       C  0.67070607  0.08079282  0.87227651    -0.01100
C3800       C  0.67452647  0.09536303  0.87606749    -0.09100
C3801       C  0.66388025  0.10659979  0.87642331    -0.17900
C3802       C  0.64890090  0.10369855  0.87288815     0.04500
C3803       C  0.64496438  0.08886185  0.86932852     0.18700
C3804       C  0.65581150  0.07763092  0.86904598    -0.19300
C3805       C  0.63023419  0.08533659  0.86598117    -0.20600
C3806       C  0.61932585  0.09625377  0.86597395    -0.19100
C3807       C  0.62287168  0.11101717  0.86918713     0.20100
C3808       C  0.63772109  0.11496651  0.87268356     0.02200
C3809       C  0.64075222  0.13006790  0.87561689    -0.13900
C3810       C  0.62956548  0.14073193  0.87506923    -0.11600
C3811       C  0.61495143  0.13680664  0.87173782     0.01700
C3812       C  0.61166534  0.12189094  0.86884251    -0.23800
H3813       H  0.68581890  0.09816359  0.87891122     0.09700
H3814       H  0.66776573  0.11745072  0.87953916     0.13300
H3815       H  0.65261545  0.06644217  0.86609023     0.12000
H3816       H  0.62712420  0.07404269  0.86330893     0.13200
H3817       H  0.60804756  0.09314459  0.86330166     0.12200
H3818       H  0.65168880  0.13406257  0.87819684     0.09300
H3819       H  0.63238160  0.15221689  0.87712476     0.12600
H3820       H  0.60034679  0.11874430  0.86641336     0.14500
C3821       C  0.65951854  0.06482694  0.15425513    -0.01100
C3822       C  0.66315760  0.04996338  0.15165283    -0.09100
C3823       C  0.67704987  0.04600109  0.14619748    -0.17900
C3824       C  0.68799431  0.05685712  0.14340860     0.04500
C3825       C  0.68406120  0.07200382  0.14554667     0.18700
C3826       C  0.66987788  0.07585247  0.15080171    -0.19300
C3827       C  0.69451630  0.08317131  0.14301461    -0.20600
C3828       C  0.70892257  0.07963101  0.13885028    -0.19100
C3829       C  0.71327016  0.06482207  0.13706424     0.20100
C3830       C  0.70281421  0.05322238  0.13907856     0.02200
C3831       C  0.70777303  0.03848477  0.13701944    -0.13900
C3832       C  0.72253266  0.03539961  0.13355314    -0.11600
C3833       C  0.73296532  0.04681799  0.13194011     0.01700
C3834       C  0.72810807  0.06155563  0.13352039    -0.23800
H3835       H  0.65530468  0.04127470  0.15430320     0.09700
H3836       H  0.67900716  0.03431018  0.14473155     0.13300
H3837       H  0.66722762  0.08735972  0.15305861     0.12000
H3838       H  0.69161594  0.09473365  0.14455847     0.13200
H3839       H  0.71679592  0.08855262  0.13724067     0.12200
H3840       H  0.70056275  0.02904156  0.13815666     0.09300
H3841       H  0.72573060  0.02391056  0.13233225     0.12600
H3842       H  0.73587960  0.07058755  0.13217577     0.14500
C3843       C  0.61187996  0.08698291  0.17280796    -0.01100
C3844       C  0.60156381  0.08735700  0.16124786    -0.09100
C3845       C  0.58700821  0.09214283  0.16377055    -0.17900
C3846       C  0.58232045  0.09661743  0.17805259     0.04500
C3847       C  0.59317964  0.09718667  0.18943601     0.18700
C3848       C  0.60771766  0.09239194  0.18672436    -0.19300
C3849       C  0.58934626  0.10194713  0.20365291    -0.20600
C3850       C  0.57480858  0.10568053  0.20700435    -0.19100
C3851       C  0.56367525  0.10455394  0.19628354     0.20100
C3852       C  0.56724931  0.10012621  0.18161319     0.02200
C3853       C  0.55548980  0.09893040  0.17134156    -0.13900
C3854       C  0.54084732  0.10180630  0.17552163    -0.11600
C3855       C  0.53733267  0.10604788  0.19004261     0.01700
C3856       C  0.54892433  0.10754433  0.20029306    -0.23800
H3857       H  0.60449970  0.08312833  0.15043552     0.09700
H3858       H  0.57957581  0.09181193  0.15443938     0.13300
H3859       H  0.61570506  0.09220307  0.19569938     0.12000
H3860       H  0.59761551  0.10253422  0.21233574     0.13200
H3861       H  0.57219291  0.10912640  0.21818215     0.12200
H3862       H  0.55721614  0.09551640  0.16005496     0.09300
H3863       H  0.53224340  0.10044648  0.16730467     0.12600
H3864       H  0.54652168  0.11091776  0.21152542     0.14500
C3865       C  0.64748251  0.26083490  0.05852283    -0.01100
C3866       C  0.64766578  0.27211083  0.04780324    -0.09100
C3867       C  0.65022598  0.28688448  0.05167691    -0.17900
C3868       C  0.65279559  0.29103738  0.06654248     0.04500
C3869       C  0.65224419  0.27970935  0.07748293     0.18700
C3870       C  0.64957784  0.26483882  0.07342604    -0.19300
C3871       C  0.65464797  0.28325068  0.09238792    -0.20600
C3872       C  0.65809071  0.29770704  0.09661145    -0.19100
C3873       C  0.65922548  0.30903691  0.08605348     0.20100
C3874       C  0.65631221  0.30591138  0.07088198     0.02200
C3875       C  0.65760517  0.31771149  0.06064064    -0.13900
C3876       C  0.66256197  0.33165531  0.06509970    -0.11600
C3877       C  0.66610665  0.33450913  0.07989840     0.01700
C3878       C  0.66394463  0.32330764  0.09044748    -0.23800
H3879       H  0.64595637  0.26960150  0.03623696     0.09700
H3880       H  0.65028348  0.29475765  0.04270243     0.13300
H3881       H  0.64937892  0.25638673  0.08194388     0.12000
H3882       H  0.65413988  0.27471127  0.10082825     0.13200
H3883       H  0.66020914  0.29997021  0.10819562     0.12200
H3884       H  0.65540605  0.31641724  0.04900219     0.09300
H3885       H  0.66425041  0.34015956  0.05677951     0.12600
H3886       H  0.66691424  0.32539440  0.10188475     0.14500
C3887       C  0.60920673  0.16103648  0.89575818    -0.01100
C3888       C  0.60922263  0.14933499  0.90593731    -0.09100
C3889       C  0.61332163  0.15172388  0.92069109    -0.17900
C3890       C  0.61753915  0.16599961  0.92571758     0.04500
C3891       C  0.61842589  0.17758085  0.91505709     0.18700
C3892       C  0.61415686  0.17503750  0.90031376    -0.19300
C3893       C  0.62312075  0.19175772  0.91926560    -0.20600
C3894       C  0.62660520  0.19482075  0.93394507    -0.19100
C3895       C  0.62520168  0.18386881  0.94486457     0.20100
C3896       C  0.62064398  0.16929796  0.94092008     0.02200
C3897       C  0.61898138  0.15880925  0.95243687    -0.13900
C3898       C  0.62176276  0.16259439  0.96717774    -0.11600
C3899       C  0.62637862  0.17693232  0.97108757     0.01700
C3900       C  0.62811479  0.18749407  0.95975416    -0.23800
H3901       H  0.60532285  0.13846482  0.90266033     0.09700
H3902       H  0.61281384  0.14224205  0.92795171     0.13300
H3903       H  0.61419584  0.18412099  0.89242182     0.12000
H3904       H  0.62396393  0.20059639  0.91116083     0.13200
H3905       H  0.63011887  0.20594148  0.93682842     0.12200
H3906       H  0.61528989  0.14762333  0.95044821     0.09300
H3907       H  0.62012410  0.15416028  0.97553276     0.12600
H3908       H  0.63165153  0.19863855  0.96245652     0.14500
C3909       C  0.63569657  0.08926962  0.14759426    -0.01100
C3910       C  0.63760276  0.08420532  0.13308244    -0.09100
C3911       C  0.63773471  0.09415672  0.12115629    -0.17900
C3912       C  0.63600859  0.10960745  0.12341872     0.04500
C3913       C  0.63419789  0.11462582  0.13823169     0.18700
C3914       C  0.63398680  0.10448715  0.15005829    -0.19300
C3915       C  0.63268824  0.12976584  0.14120771    -0.20600
C3916       C  0.63295197  0.14011113  0.12980490    -0.19100
C3917       C  0.63460855  0.13559489  0.11509457     0.20100
C3918       C  0.63607285  0.12028621  0.11162070     0.02200
C3919       C  0.63746899  0.11642328  0.09650618    -0.13900
C3920       C  0.63750766  0.12730786  0.08539777    -0.11600
C3921       C  0.63625609  0.14241260  0.08891714     0.01700
C3922       C  0.63476862  0.14638830  0.10384703    -0.23800
H3923       H  0.63889976  0.07245756  0.13097445     0.09700
H3924       H  0.63927236  0.08943960  0.11031685     0.13300
H3925       H  0.63271949  0.10844285  0.16130586     0.12000
H3926       H  0.63134156  0.13365394  0.15246754     0.13200
H3927       H  0.63180845  0.15176121  0.13252244     0.12200
H3928       H  0.63851650  0.10507523  0.09291413     0.09300
H3929       H  0.63870888  0.12383701  0.07400759     0.12600
H3930       H  0.63355406  0.15795865  0.10680996     0.14500
C3931       C  0.20002992  0.51486919  0.12223977    -0.01100
C3932       C  0.21043841  0.52610210  0.12485731    -0.09100
C3933       C  0.20694677  0.54102059  0.12237545    -0.17900
C3934       C  0.19283765  0.54528949  0.11702744     0.04500
C3935       C  0.18206679  0.53397561  0.11507848     0.18700
C3936       C  0.18571134  0.51900220  0.11770336    -0.19300
C3937       C  0.16782068  0.53761508  0.11011010    -0.20600
C3938       C  0.16419967  0.55217721  0.10643844    -0.19100
C3939       C  0.17476773  0.56347288  0.10748845     0.20100
C3940       C  0.18918155  0.56024930  0.11305070     0.02200
C3941       C  0.19952523  0.57200522  0.11365372    -0.13900
C3942       C  0.19603201  0.58600565  0.10801163    -0.11600
C3943       C  0.18205709  0.58893629  0.10198293     0.01700
C3944       C  0.17127008  0.57779816  0.10224196    -0.23800
H3945       H  0.22145451  0.52340765  0.12873417     0.09700
H3946       H  0.21560844  0.54891515  0.12457462     0.13300
H3947       H  0.17743899  0.51055487  0.11572425     0.12000
H3948       H  0.15949459  0.52907567  0.10874503     0.13200
H3949       H  0.15318018  0.55453324  0.10229243     0.12200
H3950       H  0.21061493  0.57059109  0.11780068     0.09300
H3951       H  0.20451583  0.59450006  0.10785101     0.12600
H3952       H  0.16050515  0.57998315  0.09737791     0.14500
C3953       C  0.08739929  0.63908527  0.35138429    -0.01100
C3954       C  0.07312771  0.63378715  0.34857205    -0.09100
C3955       C  0.06945079  0.62777556  0.33485008    -0.17900
C3956       C  0.07993465  0.62719587  0.32326257     0.04500
C3957       C  0.09468764  0.63172660  0.32647263     0.18700
C3958       C  0.09831183  0.63751857  0.34049712    -0.19300
C3959       C  0.10552843  0.63112384  0.31543700    -0.20600
C3960       C  0.10189337  0.62680664  0.30109473    -0.19100
C3961       C  0.08729861  0.62306446  0.29738332     0.20100
C3962       C  0.07616849  0.62292156  0.30848097     0.02200
C3963       C  0.06161836  0.61910966  0.30414887    -0.13900
C3964       C  0.05815223  0.61617901  0.28938400    -0.11600
C3965       C  0.06900113  0.61682425  0.27831654     0.01700
C3966       C  0.08367419  0.61993327  0.28253287    -0.23800
H3967       H  0.06459588  0.63478433  0.35692719     0.09700
H3968       H  0.05816300  0.62414616  0.33353755     0.13300
H3969       H  0.10936898  0.64170029  0.34260686     0.12000
H3970       H  0.11682862  0.63439568  0.31781464     0.13200
H3971       H  0.11048747  0.62680580  0.29274112     0.12200
H3972       H  0.05253979  0.61859132  0.31185098     0.09300
H3973       H  0.04678709  0.61356460  0.28669419     0.12600
H3974       H  0.09228093  0.62040312  0.27422464     0.14500
C3975       C  0.90709160  0.59007752  0.17149090    -0.01100
C3976       C  0.91003969  0.59566214  0.18564754    -0.09100
C3977       C  0.92430809  0.59996882  0.18977808    -0.17900
C3978       C  0.93633045  0.59858506  0.17988373     0.04500
C3979       C  0.93315560  0.59381720  0.16519595     0.18700
C3980       C  0.91860560  0.58970295  0.16110412    -0.19300
C3981       C  0.94465234  0.59254905  0.15489946    -0.20600
C3982       C  0.95925375  0.59546663  0.15896149    -0.19100
C3983       C  0.96281574  0.59959974  0.17347898     0.20100
C3984       C  0.95140275  0.60132100  0.18414190     0.02200
C3985       C  0.95565158  0.60524839  0.19870343    -0.13900
C3986       C  0.97055215  0.60721073  0.20251668    -0.11600
C3987       C  0.98184077  0.60544029  0.19201826     0.01700
C3988       C  0.97777884  0.60174549  0.17744307    -0.23800
H3989       H  0.90129850  0.59608314  0.19383616     0.09700
H3990       H  0.92562936  0.60390138  0.20094518     0.13300
H3991       H  0.91646180  0.58524781  0.15017589     0.12000
H3992       H  0.94237084  0.58902235  0.14366948     0.13200
H3993       H  0.96787666  0.59418337  0.15073700     0.12200
H3994       H  0.94773758  0.60669839  0.20748307     0.09300
H3995       H  0.97316972  0.61015492  0.21381790     0.12600
H3996       H  0.98626719  0.60021537  0.16914374     0.14500
C3997       C  0.09985404  0.61208658  0.15967781    -0.01100
C3998       C  0.09611486  0.61531221  0.14494734    -0.09100
C3999       C  0.10690957  0.61555731  0.13385499    -0.17900
C4000       C  0.12193837  0.61251786  0.13710891     0.04500
C4001       C  0.12566013  0.60913403  0.15203268     0.18700
C4002       C  0.11470019  0.60896981  0.16307020    -0.19300
C4003       C  0.14032766  0.60593694  0.15590437    -0.20600
C4004       C  0.15145013  0.60611058  0.14530011    -0.19100
C4005       C  0.14821046  0.60947473  0.13053175     0.20100
C4006       C  0.13341163  0.61271068  0.12616879     0.02200
C4007       C  0.13081197  0.61600183  0.11106491    -0.13900
C4008       C  0.14238986  0.61600674  0.10080592    -0.11600
C4009       C  0.15692817  0.61282142  0.10519254     0.01700
C4010       C  0.15974016  0.60962772  0.12010162    -0.23800
H4011       H  0.08479767  0.61785275  0.14193156     0.09700
H4012       H  0.10313328  0.61820254  0.12284585     0.13300
H4013       H  0.11780022  0.60627011  0.17433731     0.12000
H4014       H  0.14323697  0.60330802  0.16724894     0.13200
H4015       H  0.16269204  0.60359947  0.14868818     0.12200
H4016       H  0.11995349  0.61855452  0.10681327     0.09300
H4017       H  0.13994056  0.61833672  0.08930517     0.12600
H4018       H  0.17099685  0.60739422  0.12361633     0.14500
C4019       C  0.14494718  0.21161358  0.93935175    -0.01100
C4020       C  0.14812446  0.20772960  0.92463720    -0.09100
C4021       C  0.15069620  0.19294580  0.92058798    -0.17900
C4022       C  0.15022399  0.18138139  0.93116997     0.04500
C4023       C  0.14671802  0.18529817  0.94600609     0.18700
C4024       C  0.14413179  0.20019459  0.94991350    -0.19300
C4025       C  0.14600396  0.17434430  0.95697162    -0.20600
C4026       C  0.14906905  0.15962392  0.95364380    -0.19100
C4027       C  0.15296898  0.15544119  0.93926716     0.20100
C4028       C  0.15340245  0.16615715  0.92771560     0.02200
C4029       C  0.15743013  0.16116344  0.91339033    -0.13900
C4030       C  0.16163556  0.14636838  0.91090668    -0.11600
C4031       C  0.16180387  0.13608542  0.92254216     0.01700
C4032       C  0.15702858  0.14065634  0.93656110    -0.23800
H4033       H  0.14872147  0.21612780  0.91610382     0.09700
H4034       H  0.15314087  0.19092593  0.90909774     0.13300
H4035       H  0.14165382  0.20283559  0.96131957     0.12000
H4036       H  0.14325901  0.17721390  0.96827935     0.13200
H4037       H  0.14867008  0.15147764  0.96247485     0.12200
H4038       H  0.15790787  0.16854014  0.90400166     0.09300
H4039       H  0.16549567  0.14316451  0.90003347     0.12600
H4040       H  0.15713565  0.13274567  0.94562474     0.14500
C4041       C  0.10339509  0.11297320  0.84031315    -0.01100
C4042       C  0.11786253  0.10856821  0.83683526    -0.09100
C4043       C  0.12891353  0.10811992  0.84770500    -0.17900
C4044       C  0.12587035  0.11219195  0.86251195     0.04500
C4045       C  0.11116924  0.11663570  0.86596981     0.18700
C4046       C  0.10018151  0.11698207  0.85494963    -0.19300
C4047       C  0.10747104  0.12072430  0.88042905    -0.20600
C4048       C  0.11802352  0.12038061  0.89161863    -0.19100
C4049       C  0.13259059  0.11607110  0.88862139     0.20100
C4050       C  0.13680677  0.11202545  0.87401684     0.02200
C4051       C  0.15179290  0.10811110  0.87161280    -0.13900
C4052       C  0.16207091  0.10821597  0.88321522    -0.11600
C4053       C  0.15775904  0.11190464  0.89763182     0.01700
C4054       C  0.14296837  0.11579595  0.90020784    -0.23800
H4055       H  0.12066088  0.10525021  0.82568046     0.09700
H4056       H  0.13970477  0.10447452  0.84418135     0.13300
H4057       H  0.08910069  0.12055637  0.85781431     0.12000
H4058       H  0.09629636  0.12415777  0.88312879     0.13200
H4059       H  0.11476899  0.12355835  0.90270784     0.12200
H4060       H  0.15595175  0.10506950  0.86087364     0.09300
H4061       H  0.17348922  0.10545439  0.88087962     0.12600
H4062       H  0.13949076  0.11849308  0.91135120     0.14500
C4063       C  0.86380900  0.06170785  0.85021144    -0.01100
C4064       C  0.86014168  0.04734559  0.85490284    -0.09100
C4065       C  0.84603655  0.04403373  0.86032592    -0.17900
C4066       C  0.83485457  0.05499758  0.86096849     0.04500
C4067       C  0.83878668  0.06972989  0.85682139     0.18700
C4068       C  0.85319962  0.07298194  0.85166107    -0.19300
C4069       C  0.82809430  0.08097569  0.85718082    -0.20600
C4070       C  0.81346105  0.07781420  0.86090848    -0.19100
C4071       C  0.80909120  0.06332401  0.86446611     0.20100
C4072       C  0.81979428  0.05176936  0.86492500     0.02200
C4073       C  0.81482220  0.03741345  0.86886432    -0.13900
C4074       C  0.79981786  0.03452254  0.87147318    -0.11600
C4075       C  0.78911229  0.04577474  0.87035627     0.01700
C4076       C  0.79399671  0.06026953  0.86718640    -0.23800
H4077       H  0.86815377  0.03845480  0.85391243     0.09700
H4078       H  0.84408680  0.03265007  0.86341431     0.13300
H4079       H  0.85582961  0.08407940  0.84784538     0.12000
H4080       H  0.83097750  0.09224812  0.85415367     0.13200
H4081       H  0.80542090  0.08673981  0.86069243     0.12200
H4082       H  0.82223820  0.02809148  0.86982703     0.09300
H4083       H  0.79665002  0.02328217  0.87419636     0.12600
H4084       H  0.78603391  0.06921856  0.86645023     0.14500
C4085       C  0.91178299  0.08199932  0.82991604    -0.01100
C4086       C  0.92162314  0.08498017  0.84153128    -0.09100
C4087       C  0.93582620  0.09064710  0.83866741    -0.17900
C4088       C  0.94063528  0.09348499  0.82399617     0.04500
C4089       C  0.93025084  0.09116133  0.81238612     0.18700
C4090       C  0.91609929  0.08545560  0.81543086    -0.19300
C4091       C  0.93418613  0.09404863  0.79769572    -0.20600
C4092       C  0.94838877  0.09874374  0.79415783    -0.19100
C4093       C  0.95910487  0.10055803  0.80519587     0.20100
C4094       C  0.95540050  0.09812963  0.82030338     0.02200
C4095       C  0.96677066  0.10006379  0.83091100    -0.13900
C4096       C  0.98121820  0.10384116  0.82663226    -0.11600
C4097       C  0.98490299  0.10592264  0.81165878     0.01700
C4098       C  0.97360711  0.10447581  0.80107831    -0.23800
H4099       H  0.91861340  0.08222871  0.85280008     0.09700
H4100       H  0.94292693  0.09234814  0.84811056     0.13300
H4101       H  0.90852291  0.08318978  0.80638919     0.12000
H4102       H  0.92627558  0.09241802  0.78881733     0.13200
H4103       H  0.95110082  0.10066364  0.78263444     0.12200
H4104       H  0.96488554  0.09849558  0.84258587     0.09300
H4105       H  0.98953304  0.10498139  0.83517304     0.12600
H4106       H  0.97608171  0.10607908  0.78947627     0.14500
C4107       C  0.88097010  0.26410442  0.93548881    -0.01100
C4108       C  0.87632868  0.26774126  0.92109342    -0.09100
C4109       C  0.87378734  0.28250195  0.91694375    -0.17900
C4110       C  0.87566571  0.29422681  0.92714782     0.04500
C4111       C  0.88068966  0.29052470  0.94161462     0.18700
C4112       C  0.88344677  0.27568382  0.94554581    -0.19300
C4113       C  0.88244653  0.30160084  0.95229645    -0.20600
C4114       C  0.87849459  0.31617365  0.94921795    -0.19100
C4115       C  0.87298412  0.32010115  0.93528003     0.20100
C4116       C  0.87207510  0.30936218  0.92381116     0.02200
C4117       C  0.86706733  0.31420559  0.90973397    -0.13900
C4118       C  0.86191397  0.32872797  0.90758826    -0.11600
C4119       C  0.86165615  0.33879804  0.91935092     0.01700
C4120       C  0.86770874  0.33457219  0.93298003    -0.23800
H4121       H  0.87431330  0.25915672  0.91299913     0.09700
H4122       H  0.86992909  0.28434665  0.90579480     0.13300
H4123       H  0.88720797  0.27319896  0.95665583     0.12000
H4124       H  0.88639663  0.29888127  0.96330400     0.13200
H4125       H  0.87942744  0.32437313  0.95792591     0.12200
H4126       H  0.86659756  0.30690580  0.90030721     0.09300
H4127       H  0.85730127  0.33181324  0.89695025     0.12600
H4128       H  0.86764700  0.34242655  0.94206123     0.14500
C4129       C  0.89113096  0.18086821  0.02509053    -0.01100
C4130       C  0.88827234  0.19182956  0.03571045    -0.09100
C4131       C  0.89007104  0.18894363  0.05082637    -0.17900
C4132       C  0.89495821  0.17491798  0.05593557     0.04500
C4133       C  0.89736940  0.16367467  0.04519373     0.18700
C4134       C  0.89540579  0.16670425  0.03000977    -0.19300
C4135       C  0.90207110  0.14954151  0.04963416    -0.20600
C4136       C  0.90492071  0.14644274  0.06446359    -0.19100
C4137       C  0.90323899  0.15741139  0.07527099     0.20100
C4138       C  0.89799250  0.17175838  0.07120862     0.02200
C4139       C  0.89666144  0.18247730  0.08253698    -0.13900
C4140       C  0.90131704  0.17939790  0.09697414    -0.11600
C4141       C  0.90709522  0.16547737  0.10077389     0.01700
C4142       C  0.90752010  0.15434768  0.08998750    -0.23800
H4143       H  0.88463928  0.20277602  0.03237174     0.09700
H4144       H  0.88769453  0.19799665  0.05822603     0.13300
H4145       H  0.89764767  0.15806726  0.02200585     0.12000
H4146       H  0.90383236  0.14087527  0.04153076     0.13200
H4147       H  0.90885737  0.13547562  0.06744845     0.12200
H4148       H  0.89263775  0.19355196  0.08048357     0.09300
H4149       H  0.90094678  0.18817095  0.10514265     0.12600
H4150       H  0.91222733  0.14363138  0.09278513     0.14500
C4151       C  0.88704819  0.08741159  0.85340902    -0.01100
C4152       C  0.88736686  0.10212776  0.84852295    -0.09100
C4153       C  0.88708371  0.11383559  0.85863477    -0.17900
C4154       C  0.88666731  0.11111628  0.87407135     0.04500
C4155       C  0.88656251  0.09608041  0.87890789     0.18700
C4156       C  0.88658458  0.08444411  0.86858469    -0.19300
C4157       C  0.88654784  0.09273118  0.89402497    -0.20600
C4158       C  0.88657987  0.10398959  0.90451234    -0.19100
C4159       C  0.88645320  0.11890297  0.90016433     0.20100
C4160       C  0.88643683  0.12270657  0.88488723     0.02200
C4161       C  0.88611501  0.13793851  0.88115172    -0.13900
C4162       C  0.88584796  0.14887439  0.89209404    -0.11600
C4163       C  0.88591454  0.14511928  0.90717975     0.01700
C4164       C  0.88625876  0.13003066  0.91106489    -0.23800
H4165       H  0.88774712  0.10453412  0.83678443     0.09700
H4166       H  0.88733184  0.12486266  0.85402444     0.13300
H4167       H  0.88652298  0.07300651  0.87231505     0.12000
H4168       H  0.88655988  0.08130309  0.89777554     0.13200
H4169       H  0.88660965  0.10099833  0.91613297     0.12200
H4170       H  0.88596838  0.14178813  0.86985789     0.09300
H4171       H  0.88561815  0.16034446  0.88859179     0.12600
H4172       H  0.88624558  0.12682945  0.92261313     0.14500
C4173       C  0.39947167  0.80068693  0.02382558    -0.01100
C4174       C  0.40171093  0.81573847  0.02727140    -0.09100
C4175       C  0.40472328  0.82032310  0.04181391    -0.17900
C4176       C  0.40568333  0.80995887  0.05355333     0.04500
C4177       C  0.40327745  0.79476008  0.05004864     0.18700
C4178       C  0.40016815  0.79033329  0.03542978    -0.19300
C4179       C  0.40420909  0.78393664  0.06112316    -0.20600
C4180       C  0.40789349  0.78776992  0.07553833    -0.19100
C4181       C  0.41063312  0.80255334  0.07933557     0.20100
C4182       C  0.40928495  0.81396985  0.06853934     0.02200
C4183       C  0.41195846  0.82875556  0.07323304    -0.13900
C4184       C  0.41658950  0.83187068  0.08777984    -0.11600
C4185       C  0.41862667  0.82039983  0.09807241     0.01700
C4186       C  0.41523648  0.80585264  0.09381312    -0.23800
H4187       H  0.40124144  0.82411953  0.01870706     0.09700
H4188       H  0.40642648  0.83202824  0.04351227     0.13300
H4189       H  0.39845751  0.77868355  0.03314319     0.12000
H4190       H  0.40233016  0.77234929  0.05856457     0.13200
H4191       H  0.40882311  0.77904148  0.08375475     0.12200
H4192       H  0.41093147  0.83806767  0.06580428     0.09300
H4193       H  0.41929557  0.84318189  0.09075868     0.12600
H4194       H  0.41677245  0.79691928  0.10172872     0.14500
C4195       C  0.32176011  0.01616666  0.12313023    -0.01100
C4196       C  0.33639827  0.02017316  0.11976517    -0.09100
C4197       C  0.34027629  0.03498370  0.11712498    -0.17900
C4198       C  0.32956899  0.04642145  0.11764907     0.04500
C4199       C  0.31486275  0.04240714  0.12159909     0.18700
C4200       C  0.31115294  0.02748698  0.12437697    -0.19300
C4201       C  0.30378589  0.05324537  0.12228292    -0.20600
C4202       C  0.30676901  0.06784124  0.11829247    -0.19100
C4203       C  0.32094678  0.07202743  0.11366895     0.20100
C4204       C  0.33271522  0.06154565  0.11378394     0.02200
C4205       C  0.34692175  0.06658511  0.10942129    -0.13900
C4206       C  0.34903336  0.08104188  0.10406407    -0.11600
C4207       C  0.33712838  0.09094205  0.10299229     0.01700
C4208       C  0.32324154  0.08648506  0.10827591    -0.23800
H4209       H  0.34492844  0.01181389  0.11877493     0.09700
H4210       H  0.35167874  0.03707655  0.11432118     0.13300
H4211       H  0.29984716  0.02471137  0.12721837     0.12000
H4212       H  0.29259650  0.05031802  0.12546067     0.13200
H4213       H  0.29780397  0.07583815  0.11844310     0.12200
H4214       H  0.35651478  0.05946949  0.10956559     0.09300
H4215       H  0.35984356  0.08419026  0.09996469     0.12600
H4216       H  0.31400112  0.09414711  0.10756439     0.14500
C4217       C  0.35443968  0.89803657  0.12561490    -0.01100
C4218       C  0.35088068  0.88330008  0.12216946    -0.09100
C4219       C  0.36184883  0.87239229  0.12127906    -0.17900
C4220       C  0.37690718  0.87582402  0.12387614     0.04500
C4221       C  0.38051682  0.89078297  0.12729233     0.18700
C4222       C  0.36935885  0.90166113  0.12810499    -0.19300
C4223       C  0.39524854  0.89480938  0.12996338    -0.20600
C4224       C  0.40649395  0.88427742  0.12944709    -0.19100
C4225       C  0.40331440  0.86943583  0.12623858     0.20100
C4226       C  0.38848836  0.86497640  0.12331248     0.02200
C4227       C  0.38592797  0.84983608  0.12005385    -0.13900
C4228       C  0.39755507  0.83960883  0.11987105    -0.11600
C4229       C  0.41208180  0.84405125  0.12287800     0.01700
C4230       C  0.41489662  0.85899909  0.12599874    -0.23800
H4231       H  0.33954329  0.88009996  0.12001209     0.09700
H4232       H  0.35815377  0.86138022  0.11855859     0.13300
H4233       H  0.37235799  0.91294693  0.13086729     0.12000
H4234       H  0.39809594  0.90619255  0.13254275     0.13200
H4235       H  0.41776430  0.88776122  0.13164436     0.12200
H4236       H  0.37507979  0.84551527  0.11768213     0.09300
H4237       H  0.39516441  0.82807465  0.11755581     0.12600
H4238       H  0.42616794  0.86249592  0.12815766     0.14500
C4239       C  0.35810998  0.83858518  0.42303737    -0.01100
C4240       C  0.35984646  0.82858010  0.41134192    -0.09100
C4241       C  0.36439004  0.81393636  0.41402490    -0.17900
C4242       C  0.36721297  0.80879996  0.42860338     0.04500
C4243       C  0.36599689  0.81922578  0.44031660     0.18700
C4244       C  0.36153748  0.83387301  0.43743550    -0.19300
C4245       C  0.36879256  0.81489014  0.45493280    -0.20600
C4246       C  0.37252724  0.80030908  0.45826482    -0.19100
C4247       C  0.37347662  0.78964104  0.44708101     0.20100
C4248       C  0.37089885  0.79370469  0.43207534     0.02200
C4249       C  0.37186373  0.78240425  0.42129614    -0.13900
C4250       C  0.37516937  0.76775122  0.42526176    -0.11600
C4251       C  0.37768679  0.76375302  0.44008447     0.01700
C4252       C  0.37685762  0.77487914  0.45090167    -0.23800
H4253       H  0.35699154  0.83184974  0.40016341     0.09700
H4254       H  0.36523355  0.80680509  0.40450723     0.13300
H4255       H  0.36020726  0.84156481  0.44655572     0.12000
H4256       H  0.36791984  0.82281218  0.46389858     0.13200
H4257       H  0.37450605  0.79731407  0.46971865     0.12200
H4258       H  0.36999918  0.78451019  0.40970128     0.09300
H4259       H  0.37565365  0.75954389  0.41657132     0.12600
H4260       H  0.37878204  0.77212365  0.46240479     0.14500
C4261       C  0.33942422  0.88732823  0.40271466    -0.01100
C4262       C  0.35113275  0.89679643  0.39900229    -0.09100
C4263       C  0.34835197  0.91102161  0.39327558    -0.17900
C4264       C  0.33367942  0.91628649  0.39126348     0.04500
C4265       C  0.32191657  0.90629537  0.39437538     0.18700
C4266       C  0.32488521  0.89204681  0.39993658    -0.19300
C4267       C  0.30719126  0.91073750  0.39245952    -0.20600
C4268       C  0.30381572  0.92507501  0.38791410    -0.19100
C4269       C  0.31506898  0.93539242  0.38522844     0.20100
C4270       C  0.33017444  0.93115232  0.38670927     0.02200
C4271       C  0.34102302  0.94211370  0.38394453    -0.13900
C4272       C  0.33703078  0.95667066  0.38018303    -0.11600
C4273       C  0.32210345  0.96089540  0.37895937     0.01700
C4274       C  0.31122183  0.95002518  0.38133900    -0.23800
H4275       H  0.36245010  0.89350655  0.40121748     0.09700
H4276       H  0.35789584  0.91780335  0.39094238     0.13300
H4277       H  0.31575139  0.88474690  0.40271075     0.12000
H4278       H  0.29818581  0.90313234  0.39474981     0.13200
H4279       H  0.29228041  0.92819649  0.38675142     0.12200
H4280       H  0.35270933  0.93982348  0.38479371     0.09300
H4281       H  0.34577739  0.96464282  0.37835039     0.12600
H4282       H  0.29962760  0.95292709  0.38043106     0.14500
C4283       C  0.53740937  0.87415215  0.30861129    -0.01100
C4284       C  0.54821758  0.87358145  0.29747812    -0.09100
C4285       C  0.56316063  0.87623444  0.30062162    -0.17900
C4286       C  0.56796509  0.87966998  0.31512592     0.04500
C4287       C  0.55707002  0.88009766  0.32645038     0.18700
C4288       C  0.54204341  0.87728372  0.32314650    -0.19300
C4289       C  0.56120023  0.88360124  0.34098279    -0.20600
C4290       C  0.57582976  0.88709916  0.34445342    -0.19100
C4291       C  0.58679662  0.88711230  0.33351596     0.20100
C4292       C  0.58307089  0.88310183  0.31873312     0.02200
C4293       C  0.59456755  0.88315369  0.30813130    -0.13900
C4294       C  0.60880025  0.88799503  0.31179063    -0.11600
C4295       C  0.61226719  0.89266110  0.32615703     0.01700
C4296       C  0.60132850  0.89172458  0.33711950    -0.23800
H4297       H  0.54519526  0.87106256  0.28617835     0.09700
H4298       H  0.57066427  0.87567099  0.29137978     0.13300
H4299       H  0.53393340  0.87783896  0.33193782     0.12000
H4300       H  0.55298948  0.88390105  0.34970873     0.13200
H4301       H  0.57853644  0.89006830  0.35575233     0.12200
H4302       H  0.59282013  0.87996384  0.29677702     0.09300
H4303       H  0.61707631  0.88864986  0.30314807     0.12600
H4304       H  0.60386072  0.89551166  0.34821942     0.14500
C4305       C  0.45173139  0.85698267  0.22314153    -0.01100
C4306       C  0.46304118  0.85810465  0.21255873    -0.09100
C4307       C  0.46027690  0.85577535  0.19753253    -0.17900
C4308       C  0.44596879  0.85215004  0.19233176     0.04500
C4309       C  0.43435939  0.85140734  0.20290994     0.18700
C4310       C  0.43730167  0.85380922  0.21811122    -0.19300
C4311       C  0.41993527  0.84802836  0.19825269    -0.20600
C4312       C  0.41689637  0.84488721  0.18343280    -0.19100
C4313       C  0.42819470  0.84497362  0.17282207     0.20100
C4314       C  0.44286253  0.84886988  0.17710185     0.02200
C4315       C  0.45390053  0.84878758  0.16602961    -0.13900
C4316       C  0.45073765  0.84414205  0.15165072    -0.11600
C4317       C  0.43647237  0.83962891  0.14758102     0.01700
C4318       C  0.42509154  0.84053292  0.15811336    -0.23800
H4319       H  0.47426834  0.86066285  0.21579881     0.09700
H4320       H  0.46967922  0.85677548  0.19028633     0.13300
H4321       H  0.42833097  0.85301024  0.22600340     0.12000
H4322       H  0.41096019  0.84756337  0.20618152     0.13200
H4323       H  0.40566671  0.84203302  0.18031046     0.12200
H4324       H  0.46524335  0.85174885  0.16821214     0.09300
H4325       H  0.45970762  0.84351140  0.14372730     0.12600
H4326       H  0.41405969  0.83684803  0.15514423     0.14500
C4327       C  0.41919417  0.86078026  0.34218311    -0.01100
C4328       C  0.40435489  0.86290503  0.33808972    -0.09100
C4329       C  0.39307504  0.86320082  0.34866040    -0.17900
C4330       C  0.39617536  0.86132544  0.36388648     0.04500
C4331       C  0.41121218  0.85916643  0.36807841     0.18700
C4332       C  0.42250354  0.85894144  0.35728773    -0.19300
C4333       C  0.41489112  0.85726279  0.38302800    -0.20600
C4334       C  0.40399156  0.85752248  0.39391218    -0.19100
C4335       C  0.38909810  0.85968047  0.39016297     0.20100
C4336       C  0.38493896  0.86157741  0.37508747     0.02200
C4337       C  0.36971445  0.86367672  0.37192306    -0.13900
C4338       C  0.35916891  0.86405116  0.38322965    -0.11600
C4339       C  0.36334713  0.86231499  0.39803575     0.01700
C4340       C  0.37832971  0.86003230  0.40142201    -0.23800
H4341       H  0.40134969  0.86454868  0.32661544     0.09700
H4342       H  0.38202590  0.86497546  0.34452479     0.13300
H4343       H  0.43387527  0.85720731  0.36069849     0.12000
H4344       H  0.42630679  0.85559318  0.38634224     0.13200
H4345       H  0.40724903  0.85605357  0.40536963     0.12200
H4346       H  0.36557891  0.86508296  0.36082638     0.09300
H4347       H  0.34762269  0.86564325  0.38040716     0.12600
H4348       H  0.38159836  0.85873615  0.41289767     0.14500
C4349       C  0.16007747  0.91207225  0.14897989    -0.01100
C4350       C  0.17012611  0.90026576  0.14800337    -0.09100
C4351       C  0.18485862  0.90273685  0.14366341    -0.17900
C4352       C  0.19006576  0.91722191  0.14037937     0.04500
C4353       C  0.17964828  0.92902883  0.14099009     0.18700
C4354       C  0.16489973  0.92633002  0.14505480    -0.19300
C4355       C  0.18408876  0.94361307  0.13809206    -0.20600
C4356       C  0.19878211  0.94685848  0.13498869    -0.19100
C4357       C  0.20942974  0.93559502  0.13456829     0.20100
C4358       C  0.20524028  0.92057204  0.13698769     0.02200
C4359       C  0.21649994  0.90969161  0.13616274    -0.13900
C4360       C  0.23129765  0.91364101  0.13357879    -0.11600
C4361       C  0.23546544  0.92854779  0.13169386     0.01700
C4362       C  0.22430643  0.93939104  0.13196558    -0.23800
H4363       H  0.16679836  0.88919779  0.15126452     0.09700
H4364       H  0.19204217  0.89318747  0.14347557     0.13300
H4365       H  0.15721081  0.93554813  0.14576406     0.12000
H4366       H  0.17618039  0.95264914  0.13853699     0.13200
H4367       H  0.20187304  0.95832044  0.13307691     0.12200
H4368       H  0.21422112  0.89803897  0.13759103     0.09300
H4369       H  0.23949613  0.90490439  0.13325813     0.12600
H4370       H  0.22713582  0.95094362  0.13035026     0.14500
C4371       C  0.11071528  0.89319481  0.16749100    -0.01100
C4372       C  0.10067902  0.88989162  0.15614403    -0.09100
C4373       C  0.08624302  0.88511523  0.15948541    -0.17900
C4374       C  0.08140832  0.88365927  0.17436076     0.04500
C4375       C  0.09203816  0.88607604  0.18570926     0.18700
C4376       C  0.10642819  0.89073543  0.18218596    -0.19300
C4377       C  0.08811779  0.88445343  0.20059417    -0.20600
C4378       C  0.07370916  0.88087682  0.20455489    -0.19100
C4379       C  0.06276961  0.87902018  0.19374735     0.20100
C4380       C  0.06641811  0.88031177  0.17848299     0.02200
C4381       C  0.05479166  0.87865760  0.16812407    -0.13900
C4382       C  0.04022551  0.87593734  0.17274647    -0.11600
C4383       C  0.03665848  0.87466817  0.18783501     0.01700
C4384       C  0.04812990  0.87614278  0.19822095    -0.23800
H4385       H  0.10371346  0.89180426  0.14471030     0.09700
H4386       H  0.07898238  0.88307269  0.15023513     0.13300
H4387       H  0.11418335  0.89322634  0.19101689     0.12000
H4388       H  0.09621974  0.88619946  0.20927709     0.13200
H4389       H  0.07103334  0.87987033  0.21620003     0.12200
H4390       H  0.05658368  0.87962847  0.15637307     0.09300
H4391       H  0.03174748  0.87489254  0.16435807     0.12600
H4392       H  0.04572066  0.87525883  0.20991373     0.14500
C4393       C  0.14610243  0.71143437  0.06088483    -0.01100
C4394       C  0.15092282  0.70849161  0.07537150    -0.09100
C4395       C  0.15350779  0.69398202  0.08020987    -0.17900
C4396       C  0.15141456  0.68176495  0.07066051     0.04500
C4397       C  0.14631114  0.68474287  0.05604781     0.18700
C4398       C  0.14366838  0.69941203  0.05134987    -0.19300
C4399       C  0.14414797  0.67307826  0.04608229    -0.20600
C4400       C  0.14754598  0.65857105  0.05008325    -0.19100
C4401       C  0.15302875  0.65532141  0.06421235     0.20100
C4402       C  0.15463829  0.66677596  0.07489026     0.02200
C4403       C  0.15981742  0.66272750  0.08915727    -0.13900
C4404       C  0.16408976  0.64812441  0.09232062    -0.11600
C4405       C  0.16334047  0.63717322  0.08142342     0.01700
C4406       C  0.15747619  0.64075003  0.06752693    -0.23800
H4407       H  0.15300617  0.71744321  0.08304398     0.09700
H4408       H  0.15739676  0.69272656  0.09141572     0.13300
H4409       H  0.13979993  0.70142247  0.04017666     0.12000
H4410       H  0.14013695  0.67523083  0.03497608     0.13200
H4411       H  0.14613079  0.64985384  0.04196067     0.12200
H4412       H  0.16105225  0.67064936  0.09798150     0.09300
H4413       H  0.16875490  0.64555071  0.10307451     0.12600
H4414       H  0.15695742  0.63224423  0.05906835     0.14500
C4415       C  0.13835535  0.82912886  0.09063206    -0.01100
C4416       C  0.13483645  0.82549161  0.10531113    -0.09100
C4417       C  0.13447484  0.83637140  0.11633129    -0.17900
C4418       C  0.13769873  0.85137771  0.11304126     0.04500
C4419       C  0.14139496  0.85497957  0.09816539     0.18700
C4420       C  0.14165995  0.84393696  0.08720098    -0.19300
C4421       C  0.14476734  0.86961739  0.09425766    -0.20600
C4422       C  0.14436743  0.88084709  0.10475326    -0.19100
C4423       C  0.14059742  0.87774268  0.11944239     0.20100
C4424       C  0.13730465  0.86296000  0.12388131     0.02200
C4425       C  0.13368662  0.86050506  0.13893701    -0.13900
C4426       C  0.13321240  0.87225879  0.14903098    -0.11600
C4427       C  0.13627286  0.88679912  0.14450441     0.01700
C4428       C  0.13999545  0.88941948  0.12969418    -0.23800
H4429       H  0.13212432  0.81419288  0.10832940     0.09700
H4430       H  0.13156587  0.83269358  0.12729117     0.13300
H4431       H  0.14457322  0.84692669  0.07596468     0.12000
H4432       H  0.14765606  0.87242870  0.08296082     0.13200
H4433       H  0.14695841  0.89207778  0.10132852     0.12200
H4434       H  0.13116518  0.84965389  0.14325009     0.09300
H4435       H  0.13051091  0.86997418  0.16047763     0.12600
H4436       H  0.14223323  0.90067355  0.12610894     0.14500
C4437       C  0.08554618  0.84124059  0.85336946    -0.01100
C4438       C  0.07231291  0.84870239  0.85039055    -0.09100
C4439       C  0.06937404  0.85437168  0.83630527    -0.17900
C4440       C  0.07948773  0.85231356  0.82453829     0.04500
C4441       C  0.09318518  0.84519108  0.82779469     0.18700
C4442       C  0.09617249  0.83993048  0.84218447    -0.19300
C4443       C  0.10350364  0.84274119  0.81651723    -0.20600
C4444       C  0.10031454  0.84672140  0.80196417    -0.19100
C4445       C  0.08674171  0.85331200  0.79830449     0.20100
C4446       C  0.07624607  0.85647060  0.80957646     0.02200
C4447       C  0.06276528  0.86322311  0.80528924    -0.13900
C4448       C  0.05960204  0.86612540  0.79042867    -0.11600
C4449       C  0.06973388  0.86255271  0.77925618     0.01700
C4450       C  0.08345151  0.85641584  0.78336618    -0.23800
H4451       H  0.06397666  0.84974439  0.85893628     0.09700
H4452       H  0.05885206  0.85980067  0.83488172     0.13300
H4453       H  0.10634576  0.83394029  0.84444341     0.12000
H4454       H  0.11397710  0.83736681  0.81890522     0.13200
H4455       H  0.10842050  0.84436271  0.79345834     0.12200
H4456       H  0.05432487  0.86624673  0.81311898     0.09300
H4457       H  0.04906419  0.87116532  0.78773052     0.12600
H4458       H  0.09145939  0.85359754  0.77492341     0.14500
C4459       C  0.10508921  0.81898998  0.90037205    -0.01100
C4460       C  0.10918935  0.80424036  0.90294122    -0.09100
C4461       C  0.11429378  0.79966115  0.91679384    -0.17900
C4462       C  0.11512959  0.80971423  0.92874926     0.04500
C4463       C  0.11188583  0.82490707  0.92582556     0.18700
C4464       C  0.10701444  0.82942723  0.91167119    -0.19300
C4465       C  0.11288050  0.83534893  0.93722550    -0.20600
C4466       C  0.11664291  0.83099347  0.95153938    -0.19100
C4467       C  0.11935121  0.81604929  0.95488921     0.20100
C4468       C  0.11866312  0.80518646  0.94354559     0.02200
C4469       C  0.12109655  0.79021490  0.94761575    -0.13900
C4470       C  0.12418040  0.78624055  0.96226306    -0.11600
C4471       C  0.12502250  0.79697004  0.97345251     0.01700
C4472       C  0.12256257  0.81189984  0.96958673    -0.23800
H4473       H  0.10782320  0.79603987  0.89429591     0.09700
H4474       H  0.11705956  0.78808710  0.91788904     0.13300
H4475       H  0.10372437  0.84084347  0.90975684     0.12000
H4476       H  0.11051103  0.84694944  0.93510767     0.13200
H4477       H  0.11717270  0.83935647  0.96012066     0.12200
H4478       H  0.12053037  0.78125421  0.93977248     0.09300
H4479       H  0.12592249  0.77462973  0.96473782     0.12600
H4480       H  0.12301794  0.82040453  0.97800303     0.14500
C4481       C  0.36028936  0.90793236  0.84423640    -0.01100
C4482       C  0.35003865  0.89634184  0.84534798    -0.09100
C4483       C  0.33561613  0.89903404  0.85046310    -0.17900
C4484       C  0.33104857  0.91349432  0.85462471     0.04500
C4485       C  0.34187332  0.92493759  0.85434326     0.18700
C4486       C  0.35621518  0.92208404  0.84911230    -0.19300
C4487       C  0.33821593  0.93933205  0.85878801    -0.20600
C4488       C  0.32387284  0.94280000  0.86306510    -0.19100
C4489       C  0.31273501  0.93203052  0.86274838     0.20100
C4490       C  0.31613057  0.91718087  0.85865451     0.02200
C4491       C  0.30433132  0.90687755  0.85829418    -0.13900
C4492       C  0.28978619  0.91125527  0.86145876    -0.11600
C4493       C  0.28644304  0.92600404  0.86519402     0.01700
C4494       C  0.29812395  0.93621234  0.86610785    -0.23800
H4495       H  0.35292841  0.88534053  0.84151561     0.09700
H4496       H  0.32819549  0.88967601  0.85071720     0.13300
H4497       H  0.36415113  0.93107860  0.84830513     0.12000
H4498       H  0.34647233  0.94805426  0.85873399     0.13200
H4499       H  0.32138609  0.95411315  0.86625287     0.12200
H4500       H  0.30594230  0.89543615  0.85524989     0.09300
H4501       H  0.28111274  0.90303204  0.86064076     0.12600
H4502       H  0.29587710  0.94759786  0.86915568     0.14500
C4503       C  0.20253738  0.01532878  0.87915749    -0.01100
C4504       C  0.21363650  0.02551835  0.88291896    -0.09100
C4505       C  0.21014079  0.04007943  0.88685773    -0.17900
C4506       C  0.19529137  0.04506007  0.88726575     0.04500
C4507       C  0.18403443  0.03479259  0.88335547     0.18700
C4508       C  0.18773286  0.02019533  0.87918963    -0.19300
C4509       C  0.16912031  0.03904105  0.88401945    -0.20600
C4510       C  0.16511181  0.05307672  0.88907705    -0.19100
C4511       C  0.17592076  0.06337794  0.89327018     0.20100
C4512       C  0.19118696  0.05966399  0.89192922     0.02200
C4513       C  0.20169103  0.07064272  0.89562699    -0.13900
C4514       C  0.19728379  0.08423975  0.90145068    -0.11600
C4515       C  0.18230575  0.08753384  0.90371828     0.01700
C4516       C  0.17160499  0.07719773  0.89923542    -0.23800
H4517       H  0.22514622  0.02222635  0.88314538     0.09700
H4518       H  0.21933567  0.04704874  0.88991085     0.13300
H4519       H  0.17896029  0.01257072  0.87624194     0.12000
H4520       H  0.16045737  0.03130202  0.88099126     0.13200
H4521       H  0.15346064  0.05583332  0.88987191     0.12200
H4522       H  0.21343947  0.06900367  0.89436411     0.09300
H4523       H  0.20573301  0.09213704  0.90465766     0.12600
H4524       H  0.15998536  0.07960859  0.90102679     0.14500
C4525       C  0.16779457  0.89798821  0.87195698    -0.01100
C4526       C  0.17153040  0.88287682  0.87211875    -0.09100
C4527       C  0.16064130  0.87192080  0.87292822    -0.17900
C4528       C  0.14546988  0.87566509  0.87361494     0.04500
C4529       C  0.14165287  0.89096882  0.87318940     0.18700
C4530       C  0.15274644  0.90189933  0.87241959    -0.19300
C4531       C  0.12677143  0.89529640  0.87355399    -0.20600
C4532       C  0.11557113  0.88475145  0.87432528    -0.19100
C4533       C  0.11896486  0.86961348  0.87492967     0.20100
C4534       C  0.13396203  0.86480989  0.87469267     0.02200
C4535       C  0.13674239  0.84936145  0.87566708    -0.13900
C4536       C  0.12511655  0.83918619  0.87674170    -0.11600
C4537       C  0.11042784  0.84402330  0.87671141     0.01700
C4538       C  0.10741544  0.85922766  0.87580344    -0.23800
H4539       H  0.18295559  0.87934735  0.87167390     0.09700
H4540       H  0.16448718  0.86061314  0.87295714     0.13300
H4541       H  0.14955637  0.91347124  0.87220280     0.12000
H4542       H  0.12376258  0.90693289  0.87320390     0.13200
H4543       H  0.10416199  0.88847260  0.87453505     0.12200
H4544       H  0.14775220  0.84478245  0.87568489     0.09300
H4545       H  0.12756781  0.82743857  0.87732312     0.12600
H4546       H  0.09599706  0.86293295  0.87587150     0.14500
C4547       C  0.06889751  0.12209560  0.72269095    -0.01100
C4548       C  0.05785783  0.12530752  0.71222757    -0.09100
C4549       C  0.06138635  0.12811614  0.69741311    -0.17900
C4550       C  0.07623380  0.12792017  0.69242050     0.04500
C4551       C  0.08741136  0.12434461  0.70290720     0.18700
C4552       C  0.08367676  0.12136436  0.71778886    -0.19300
C4553       C  0.10230940  0.12418560  0.69856797    -0.20600
C4554       C  0.10641533  0.12828259  0.68425669    -0.19100
C4555       C  0.09572546  0.13241381  0.67379046     0.20100
C4556       C  0.08043727  0.13173729  0.67758645     0.02200
C4557       C  0.07003675  0.13539067  0.66648622    -0.13900
C4558       C  0.07460604  0.14068241  0.65271701    -0.11600
C4559       C  0.08964693  0.14249234  0.64934196     0.01700
C4560       C  0.10021172  0.13782749  0.65977384    -0.23800
H4561       H  0.04635812  0.12596335  0.71547283     0.09700
H4562       H  0.05224183  0.13077579  0.69023677     0.13300
H4563       H  0.09240650  0.11875724  0.72558111     0.12000
H4564       H  0.11090816  0.12131300  0.70643944     0.13200
H4565       H  0.11807265  0.12851490  0.68145007     0.12200
H4566       H  0.05827151  0.13463655  0.66819786     0.09300
H4567       H  0.06621815  0.14399242  0.64478447     0.12600
H4568       H  0.11187431  0.13923455  0.65735588     0.14500
C4569       C  0.12419474  0.17988880  0.52542170    -0.01100
C4570       C  0.12723069  0.19045571  0.53638727    -0.09100
C4571       C  0.12549692  0.18713933  0.55141213    -0.17900
C4572       C  0.12054320  0.17302543  0.55615857     0.04500
C4573       C  0.11748991  0.16226901  0.54508333     0.18700
C4574       C  0.11938834  0.16573447  0.52994222    -0.19300
C4575       C  0.11238611  0.14816757  0.54919033    -0.20600
C4576       C  0.10996087  0.14460594  0.56401514    -0.19100
C4577       C  0.11260724  0.15501956  0.57519143     0.20100
C4578       C  0.11817559  0.16931678  0.57143386     0.02200
C4579       C  0.12071341  0.17941604  0.58312039    -0.13900
C4580       C  0.11689663  0.17586954  0.59767675    -0.11600
C4581       C  0.11072033  0.16207959  0.60125238     0.01700
C4582       C  0.10907954  0.15147983  0.59002898    -0.23800
H4583       H  0.13109832  0.20141494  0.53341647     0.09700
H4584       H  0.12805013  0.19594617  0.55903980     0.13300
H4585       H  0.11687705  0.15741522  0.52168156     0.12000
H4586       H  0.11005003  0.13987329  0.54084417     0.13200
H4587       H  0.10574776  0.13368255  0.56673776     0.12200
H4588       H  0.12516184  0.19035883  0.58133094     0.09300
H4589       H  0.11816347  0.18425001  0.60616334     0.12600
H4590       H  0.10406636  0.14087347  0.59266846     0.14500
C4591       C  0.28742913  0.04891514  0.62964740    -0.01100
C4592       C  0.29113627  0.06389939  0.63183943    -0.09100
C4593       C  0.30571993  0.06818848  0.63506059    -0.17900
C4594       C  0.31720384  0.05757404  0.63625632     0.04500
C4595       C  0.31344037  0.04245651  0.63372726     0.18700
C4596       C  0.29879270  0.03833349  0.63040508    -0.19300
C4597       C  0.32426111  0.03140758  0.63481168    -0.20600
C4598       C  0.33867139  0.03493496  0.63880611    -0.19100
C4599       C  0.34268988  0.04962008  0.64173984     0.20100
C4600       C  0.33216387  0.06125655  0.64024239     0.02200
C4601       C  0.33705692  0.07591502  0.64322480    -0.13900
C4602       C  0.35149925  0.07868699  0.64835192    -0.11600
C4603       C  0.36149587  0.06699120  0.65051969     0.01700
C4604       C  0.35709426  0.05259111  0.64673446    -0.23800
H4605       H  0.28271330  0.07241800  0.63134431     0.09700
H4606       H  0.30763183  0.07985754  0.63678764     0.13300
H4607       H  0.29627533  0.02674450  0.62856634     0.12000
H4608       H  0.32149358  0.01988279  0.63283633     0.13200
H4609       H  0.34668881  0.02604324  0.63986950     0.12200
H4610       H  0.32984015  0.08537957  0.64212739     0.09300
H4611       H  0.35457704  0.08989201  0.65135888     0.12600
H4612       H  0.36480071  0.04349007  0.64832702     0.14500
C4613       C  0.17992457  0.88755917  0.60027953    -0.01100
C4614       C  0.16858274  0.89812291  0.60090355    -0.09100
C4615       C  0.17149681  0.91260429  0.60581984    -0.17900
C4616       C  0.18595860  0.91693935  0.61018923     0.04500
C4617       C  0.19709429  0.90579371  0.61051240     0.18700
C4618       C  0.19398847  0.89135118  0.60559824    -0.19300
C4619       C  0.21149421  0.90926601  0.61505306    -0.20600
C4620       C  0.21530761  0.92373891  0.61869325    -0.19100
C4621       C  0.20485843  0.93516723  0.61777941     0.20100
C4622       C  0.18996965  0.93193731  0.61373201     0.02200
C4623       C  0.17994784  0.94395724  0.61291447    -0.13900
C4624       C  0.18459989  0.95852823  0.61561071    -0.11600
C4625       C  0.19938335  0.96174443  0.61928895     0.01700
C4626       C  0.20936260  0.94986674  0.62056386    -0.23800
H4627       H  0.15765954  0.89544369  0.59673526     0.09700
H4628       H  0.16234754  0.92028190  0.60560716     0.13300
H4629       H  0.20279295  0.88317682  0.60513844     0.12000
H4630       H  0.21998244  0.90077251  0.61546203     0.13200
H4631       H  0.22663944  0.92607183  0.62188583     0.12200
H4632       H  0.16848296  0.94248427  0.60993815     0.09300
H4633       H  0.17651356  0.96730670  0.61452501     0.12600
H4634       H  0.22077971  0.95201670  0.62352802     0.14500
C4635       C  0.16961624  0.07998157  0.62279869    -0.01100
C4636       C  0.15502155  0.07624045  0.62656562    -0.09100
C4637       C  0.14392391  0.08703471  0.62722896    -0.17900
C4638       C  0.14701407  0.10209304  0.62410771     0.04500
C4639       C  0.16181776  0.10587214  0.62030997     0.18700
C4640       C  0.17287935  0.09489060  0.61969522    -0.19300
C4641       C  0.16552264  0.12060865  0.61712078    -0.20600
C4642       C  0.15485625  0.13171737  0.61764831    -0.19100
C4643       C  0.14018333  0.12838226  0.62132741     0.20100
C4644       C  0.13599895  0.11352917  0.62459352     0.02200
C4645       C  0.12096673  0.11081886  0.62813328    -0.13900
C4646       C  0.11059151  0.12235045  0.62833850    -0.11600
C4647       C  0.11481273  0.13695792  0.62520899     0.01700
C4648       C  0.12965862  0.13986437  0.62174783    -0.23800
H4649       H  0.15207463  0.06490611  0.62916261     0.09700
H4650       H  0.13304313  0.08322328  0.63025485     0.13300
H4651       H  0.18404086  0.09802936  0.61666741     0.12000
H4652       H  0.17677434  0.12357891  0.61420438     0.13200
H4653       H  0.15810765  0.14301160  0.61512150     0.12200
H4654       H  0.11684526  0.09990816  0.63069243     0.09300
H4655       H  0.09915511  0.11981212  0.63083868     0.12600
H4656       H  0.13305312  0.15117390  0.61951527     0.14500
loop_ 
_geom_bond_atom_site_label_1 
_geom_bond_atom_site_label_2 
_geom_bond_distance 
_geom_bond_site_symmetry_2 
_ccdc_geom_bond_type 
N1            N2   1.322   1_565  A
N1            C5   1.350       .  A
N1           Cu9   2.104   1_565  S
N2            C3   1.345   1_545  A
N2           Cu8   2.075       .  S
C3            C4   1.388       .  A
C3            H6   1.081       .  S
C4            C5   1.396       .  A
C4         C4625   1.498       .  S
C5            H7   1.081       .  S
Cu8          N11   2.075       .  S
Cu9          N19   2.104       .  S
Cu10         N12   2.080       .  S
Cu10         N18   2.081       .  S
N11          N12   1.320       .  A
N11          C15   1.345       .  A
N12          C13   1.347       .  A
C13          C14   1.391       .  A
C13          H16   1.081       .  S
C14          C15   1.389       .  A
C14        C4635   1.491       .  S
C15          H17   1.081       .  S
N18          N19   1.323       .  A
N18          C22   1.347       .  A
N19          C20   1.348       .  A
C20          C21   1.394       .  A
C20          H23   1.081       .  S
C21          C22   1.388       .  A
C21        C4591   1.497       .  S
C22          H24   1.081       .  S
N25          C29   1.368       .  A
N25          C26   1.366       .  A
N25        C4647   1.445       .  S
C26          C27   1.380       .  A
C26        C4581   1.488       .  S
C27          C28   1.369       .  A
C27          H30   1.082       .  S
C28          C29   1.384       .  A
C28          H31   1.082       .  S
C29        C4559   1.494       .  S
N32          N33   1.322       .  A
N32          C36   1.347       .  A
N32         Cu40   2.091       .  S
N33          C34   1.346       .  A
N33         Cu39   2.078       .  S
C34          C35   1.388       .  A
C34          H37   1.081       .  S
C35          C36   1.392       .  A
C35        C4503   1.494   1_565  S
C36          H38   1.081       .  S
Cu39         N42   2.078       .  S
Cu40         N50   2.091       .  S
Cu41         N43   2.076       .  S
Cu41         N49   2.076       .  S
N42          N43   1.321       .  A
N42          C46   1.346       .  A
N43          C44   1.344       .  A
C44          C45   1.389       .  A
C44          H47   1.080       .  S
C45          C46   1.391       .  A
C45        C4525   1.492       .  S
C46          H48   1.081       .  S
N49          N50   1.321       .  A
N49          C53   1.346       .  A
N50          C51   1.347       .  A
C51          C52   1.393       .  A
C51          H54   1.081       .  S
C52          C53   1.389       .  A
C52        C4493   1.494       .  S
C53          H55   1.081       .  S
N56          C60   1.359       .  A
N56          C57   1.357       .  A
N56        C4537   1.438       .  S
C57          C58   1.381       .  A
C57        C4437   1.479       .  S
C58          C59   1.374       .  A
C58          H61   1.082       .  S
C59          C60   1.383       .  A
C59          H62   1.082       .  S
C60        C4459   1.481       .  S
N63          N64   1.322       .  A
N63          C67   1.349       .  A
N63         Cu71   2.094       .  S
N64          C65   1.343       .  A
N64         Cu70   2.072       .  S
C65          C66   1.386       .  A
C65          H68   1.081       .  S
C66          C67   1.393       .  A
C66        C4393   1.491       .  S
C67          H69   1.081       .  S
Cu70         N73   2.072       .  S
Cu71         N81   2.094       .  S
Cu72         N74   2.082       .  S
Cu72         N80   2.082       .  S
N73          N74   1.320       .  A
N73          C77   1.345       .  A
N74          C75   1.346       .  A
C75          C76   1.390       .  A
C75          H78   1.081       .  S
C76          C77   1.388       .  A
C76        C4415   1.489       .  S
C77          H79   1.081       .  S
N80          N81   1.323       .  A
N80          C84   1.346       .  A
N81          C82   1.348   1_554  A
C82          C83   1.393       .  A
C82          H85   1.081       .  S
C83          C84   1.389   1_556  A
C83        C4471   1.495       .  S
C84          H86   1.081       .  S
N87          C91   1.365       .  A
N87          C88   1.366       .  A
N87        C4427   1.444       .  S
C88          C89   1.383       .  A
C88        C4349   1.492       .  S
C89          C90   1.369       .  A
C89          H92   1.082       .  S
C90          C91   1.382       .  A
C90          H93   1.082       .  S
C91        C4371   1.488       .  S
N94          N95   1.322       .  A
N94          C98   1.347       .  A
N94        Cu102   2.090       .  S
N95          C96   1.350       .  A
N95        Cu101   2.095       .  S
C96          C97   1.393       .  A
C96          H99   1.081       .  S
C97          C98   1.392       .  A
C97        C4283   1.499       .  S
C98         H100   1.081       .  S
Cu101       N104   2.096       .  S
Cu102       N112   2.089       .  S
Cu103       N105   2.097       .  S
Cu103       N111   2.097       .  S
N104        N105   1.324       .  A
N104        C108   1.350       .  A
N105        C106   1.346       .  A
C106        C107   1.390       .  A
C106        H109   1.081       .  S
C107        C108   1.391       .  A
C107       C4327   1.496       .  S
C108        H110   1.081       .  S
N111        N112   1.321       .  A
N111        C115   1.352       .  A
N112        C113   1.345       .  A
C113        C114   1.392       .  A
C113        H116   1.080       .  S
C114        C115   1.395       .  A
C114       C4305   1.502       .  S
C115        H117   1.081       .  S
N118        C122   1.364       .  A
N118        C119   1.364       .  A
N118       C4339   1.444       .  S
C119        C120   1.383       .  A
C119       C4239   1.487       .  S
C120        C121   1.370       .  A
C120        H123   1.082       .  S
C121        C122   1.383       .  A
C121        H124   1.082       .  S
C122       C4261   1.489       .  S
N125        N126   1.322       .  A
N125        C129   1.347       .  A
N125       Cu133   2.093       .  S
N126        C127   1.348       .  A
N126       Cu132   2.086       .  S
C127        C128   1.391       .  A
C127        H130   1.081       .  S
C128        C129   1.393       .  A
C128       C4361   1.498       .  S
C129        H131   1.081       .  S
Cu132       N135   2.086       .  S
Cu133       N143   2.093       .  S
Cu134       N136   2.081       .  S
Cu134       N142   2.081       .  S
N135        N136   1.322       .  A
N135        C139   1.346       .  A
N136        C137   1.346       .  A
C137        C138   1.389       .  A
C137        H140   1.081       .  S
C138        C139   1.390       .  A
C138       C4217   1.491       .  S
C139        H141   1.081       .  S
N142        N143   1.322       .  A
N142        C146   1.346       .  A
N143        C144   1.348       .  A
C144        C145   1.392   1_565  A
C144        H147   1.081   1_565  S
C145        C146   1.390   1_545  A
C145       C4195   1.495       .  S
C146        H148   1.081       .  S
N149        C153   1.365       .  A
N149        C150   1.365       .  A
N149       C4229   1.442       .  S
C150        C151   1.383       .  A
C150       C4317   1.491       .  S
C151        C152   1.371       .  A
C151        H154   1.082       .  S
C152        C153   1.382       .  A
C152        H155   1.082       .  S
C153       C4185   1.491       .  S
N156        N157   1.321       .  A
N156        C160   1.346       .  A
N156       Cu164   2.084       .  S
N157        C158   1.346       .  A
N157       Cu163   2.076       .  S
C158        C159   1.390       .  A
C158        H161   1.081       .  S
C159        C160   1.391       .  A
C159       C4107   1.493       .  S
C160        H162   1.081       .  S
Cu163       N166   2.077       .  S
Cu164       N174   2.085       .  S
Cu165       N167   2.090       .  S
Cu165       N173   2.091       .  S
N166        N167   1.322       .  A
N166        C170   1.344       .  A
N167        C168   1.348       .  A
C168        C169   1.392       .  A
C168        H171   1.081       .  S
C169        C170   1.389       .  A
C169       C4163   1.494       .  S
C170        H172   1.081       .  S
N173        N174   1.322       .  A
N173        C177   1.348       .  A
N174        C175   1.346   1_556  A
C175        C176   1.389       .  A
C175        H178   1.081       .  S
C176        C177   1.391   1_554  A
C176       C4129   1.493       .  S
C177        H179   1.081       .  S
N180        C184   1.362       .  A
N180        C181   1.362       .  A
N180       C4151   1.438       .  S
C181        C182   1.384       .  A
C181       C4063   1.492       .  S
C182        C183   1.375       .  A
C182        H185   1.082       .  S
C183        C184   1.383       .  A
C183        H186   1.082       .  S
C184       C4085   1.490       .  S
N187        N188   1.321       .  A
N187        C191   1.348       .  A
N187       Cu195   2.100       .  S
N188        C189   1.347       .  A
N188       Cu194   2.078       .  S
C189        C190   1.390       .  A
C189        H192   1.081       .  S
C190        C191   1.394       .  A
C190       C4097   1.499   1_455  S
C191        H193   1.081   1_455  S
Cu194       N197   2.078       .  S
Cu195       N205   2.100       .  S
Cu196       N198   2.086       .  S
Cu196       N204   2.086       .  S
N197        N198   1.322       .  A
N197        C201   1.345       .  A
N198        C199   1.348       .  A
C199        C200   1.389       .  A
C199        H202   1.082       .  S
C200        C201   1.387       .  A
C200       C4041   1.488       .  S
C201        H203   1.081       .  S
N204        N205   1.322       .  A
N204        C208   1.348       .  A
N205        C206   1.348       .  A
C206        C207   1.394       .  A
C206        H209   1.081       .  S
C207        C208   1.390       .  A
C207       C4547   1.499       .  S
C208        H210   1.081       .  S
N211        C215   1.365       .  A
N211        C212   1.366       .  A
N211       C4053   1.446       .  S
C212        C213   1.382       .  A
C212       C4031   1.489       .  S
C213        C214   1.369       .  A
C213        H216   1.082       .  S
C214        C215   1.382       .  A
C214        H217   1.082       .  S
C215       C4515   1.487       .  S
N218        N219   1.322       .  A
N218        C222   1.346       .  A
N218       Cu226   2.093       .  S
N219        C220   1.348       .  A
N219       Cu225   2.082       .  S
C220        C221   1.390       .  A
C220        H223   1.081       .  S
C221        C222   1.392       .  A
C221       C3965   1.495       .  S
C222        H224   1.081       .  S
Cu225       N228   2.082       .  S
Cu226       N236   2.094       .  S
Cu227       N229   2.085       .  S
Cu227       N235   2.085       .  S
N228        N229   1.322       .  A
N228        C232   1.346       .  A
N229        C230   1.347       .  A
C230        C231   1.389       .  A
C230        H233   1.081       .  S
C231        C232   1.389       .  A
C231       C3997   1.491       .  S
C232        H234   1.081       .  S
N235        N236   1.321       .  A
N235        C239   1.347       .  A
N236        C237   1.348       .  A
C237        C238   1.393   1_455  A
C237        H240   1.081   1_455  S
C238        C239   1.390   1_655  A
C238       C3987   1.498       .  S
C239        H241   1.081       .  S
N242        C246   1.361       .  A
N242        C243   1.361       .  A
N242       C4009   1.445       .  S
C243        C244   1.381       .  A
C243       C4405   1.479       .  S
C244        C245   1.373       .  A
C244        H247   1.082       .  S
C245        C246   1.382       .  A
C245        H248   1.082       .  S
C246       C3943   1.482       .  S
N249        N250   1.322       .  A
N249        C253   1.348   1_554  A
N249       Cu257   2.088       .  S
N250        C251   1.346   1_554  A
N250       Cu256   2.090       .  S
C251        C252   1.391       .  A
C251        H254   1.081       .  S
C252        C253   1.392       .  A
C252       C3899   1.496       .  S
C253        H255   1.081       .  S
Cu256       N259   2.090       .  S
Cu257       N267   2.088       .  S
Cu258       N260   2.083       .  S
Cu258       N266   2.083       .  S
N259        N260   1.322       .  A
N259        C263   1.349       .  A
N260        C261   1.345       .  A
C261        C262   1.389       .  A
C261        H264   1.081       .  S
C262        C263   1.391       .  A
C262       C3921   1.493       .  S
C263        H265   1.082       .  S
N266        N267   1.321       .  A
N266        C270   1.348       .  A
N267        C268   1.346       .  A
C268        C269   1.392       .  A
C268        H271   1.081       .  S
C269        C270   1.391       .  A
C269       C3865   1.496       .  S
C270        H272   1.081       .  S
N273        C277   1.362       .  A
N273        C274   1.363       .  A
N273       C3909   1.444       .  S
C274        C275   1.383       .  A
C274       C3843   1.486       .  S
C275        C276   1.371       .  A
C275        H278   1.082       .  S
C276        C277   1.382       .  A
C276        H279   1.082       .  S
C277       C3821   1.484       .  S
N280        N281   1.322       .  A
N280        C284   1.348       .  A
N280       Cu288   2.100       .  S
N281        C282   1.349       .  A
N281       Cu287   2.094       .  S
C282        C283   1.393       .  A
C282        H285   1.081       .  S
C283        C284   1.394       .  A
C283       C4075   1.502       .  S
C284        H286   1.081       .  S
Cu287       N290   2.094       .  S
Cu288       N298   2.100   1_545  S
Cu289       N291   2.074       .  S
Cu289       N297   2.074       .  S
N290        N291   1.322       .  A
N290        C294   1.347       .  A
N291        C292   1.346       .  A
C292        C293   1.387       .  A
C292        H295   1.081       .  S
C293        C294   1.391       .  A
C293       C3799   1.491       .  S
C294        H296   1.081       .  S
N297        N298   1.322   1_545  A
N297        C301   1.347   1_545  A
N298        C299   1.348       .  A
C299        C300   1.393       .  A
C299        H302   1.081       .  S
C300        C301   1.388       .  A
C300       C3777   1.495       .  S
C301        H303   1.081       .  S
N304        C308   1.362       .  A
N304        C305   1.363       .  A
N304       C3811   1.445       .  S
C305        C306   1.381       .  A
C305       C3887   1.484       .  S
C306        C307   1.371       .  A
C306        H309   1.082       .  S
C307        C308   1.383       .  A
C307        H310   1.082       .  S
C308       C3755   1.483       .  S
N311        N312   1.321       .  A
N311        C315   1.346       .  A
N311       Cu319   2.089       .  S
N312        C313   1.346       .  A
N312       Cu318   2.074       .  S
C313        C314   1.388       .  A
C313        H316   1.081       .  S
C314        C315   1.391       .  A
C314       C3711   1.491       .  S
C315        H317   1.081       .  S
Cu318       N321   2.074       .  S
Cu319       N329   2.089       .  S
Cu320       N322   2.074       .  S
Cu320       N328   2.074       .  S
N321        N322   1.321       .  A
N321        C325   1.345       .  A
N322        C323   1.344       .  A
C323        C324   1.387       .  A
C323        H326   1.081       .  S
C324        C325   1.387       .  A
C324       C3733   1.484       .  S
C325        H327   1.081       .  S
N328        N329   1.321       .  A
N328        C332   1.346       .  A
N329        C330   1.346       .  A
C330        C331   1.393       .  A
C330        H333   1.081       .  S
C331        C332   1.389       .  A
C331       C3767   1.494       .  S
C332        H334   1.081       .  S
N335        C339   1.359       .  A
N335        C336   1.360       .  A
N335       C3745   1.443       .  S
C336        C337   1.382       .  A
C336       C3689   1.480       .  S
C337        C338   1.372       .  A
C337        H340   1.082       .  S
C338        C339   1.382       .  A
C338        H341   1.082       .  S
C339       C3667   1.478       .  S
N342        N343   1.322       .  A
N342        C346   1.346       .  A
N342       Cu350   2.087       .  S
N343        C344   1.347       .  A
N343       Cu349   2.087       .  S
C344        C345   1.391       .  A
C344        H347   1.081       .  S
C345        C346   1.391       .  A
C345       C3833   1.496       .  S
C346        H348   1.081       .  S
Cu349       N352   2.088       .  S
Cu350       N360   2.087   1_545  S
Cu351       N353   2.077       .  S
Cu351       N359   2.077       .  S
N352        N353   1.322       .  A
N352        C356   1.347       .  A
N353        C354   1.345       .  A
C354        C355   1.389       .  A
C354        H357   1.081       .  S
C355        C356   1.391       .  A
C355       C3645   1.493       .  S
C356        H358   1.081       .  S
N359        N360   1.321   1_545  A
N359        C363   1.346   1_545  A
N360        C361   1.346       .  A
C361        C362   1.393       .  A
C361        H364   1.081       .  S
C362        C363   1.390       .  A
C362       C3635   1.495       .  S
C363        H365   1.081       .  S
N366        C370   1.363       .  A
N366        C367   1.362       .  A
N366       C3657   1.441       .  S
C367        C368   1.381       .  A
C367       C4141   1.487       .  S
C368        C369   1.372       .  A
C368        H371   1.082       .  S
C369        C370   1.384       .  A
C369        H372   1.082       .  S
C370       C3601   1.490       .  S
N373        N374   1.321   1_455  A
N373        C377   1.348       .  A
N373       Cu381   2.094   1_455  S
N374        C375   1.346   1_655  A
N374       Cu380   2.079       .  S
C375        C376   1.390       .  A
C375        H378   1.081       .  S
C376        C377   1.394       .  A
C376       C4383   1.498       .  S
C377        H379   1.081       .  S
Cu380       N383   2.079       .  S
Cu381       N391   2.094       .  S
Cu382       N384   2.083       .  S
Cu382       N390   2.083       .  S
N383        N384   1.322       .  A
N383        C387   1.345       .  A
N384        C385   1.347       .  A
C385        C386   1.390       .  A
C385        H388   1.081       .  S
C386        C387   1.388       .  A
C386       C3591   1.490       .  S
C387        H389   1.081       .  S
N390        N391   1.323       .  A
N390        C394   1.347       .  A
N391        C392   1.347       .  A
C392        C393   1.391       .  A
C392        H395   1.081       .  S
C393        C394   1.389       .  A
C393       C3569   1.494       .  S
C394        H396   1.081       .  S
N397        C401   1.362       .  A
N397        C398   1.361       .  A
N397       C3579   1.440       .  S
C398        C399   1.382       .  A
C398       C3623   1.485       .  S
C399        C400   1.372       .  A
C399        H402   1.082       .  S
C400        C401   1.383       .  A
C400        H403   1.082       .  S
C401       C3535   1.487       .  S
N404        N405   1.322       .  A
N404        C408   1.345       .  A
N404       Cu412   2.089       .  S
N405        C406   1.349       .  A
N405       Cu411   2.089       .  S
C406        C407   1.392       .  A
C406        H409   1.081       .  S
C407        C408   1.391       .  A
C407       C3491   1.497       .  S
C408        H410   1.081       .  S
Cu411       N414   2.089       .  S
Cu412       N422   2.088       .  S
Cu413       N415   2.074       .  S
Cu413       N421   2.073       .  S
N414        N415   1.322       .  A
N414        C418   1.348       .  A
N415        C416   1.343       .  A
C416        C417   1.387       .  A
C416        H419   1.081       .  S
C417        C418   1.391       .  A
C417       C3513   1.490       .  S
C418        H420   1.081       .  S
N421        N422   1.320       .  A
N421        C425   1.346       .  A
N422        C423   1.346       .  A
C423        C424   1.393       .  A
C423        H426   1.081       .  S
C424        C425   1.390       .  A
C424       C3469   1.494       .  S
C425        H427   1.081       .  S
N428        C432   1.361       .  A
N428        C429   1.361       .  A
N428       C3525   1.443       .  S
C429        C430   1.383       .  A
C429       C3425   1.481       .  S
C430        C431   1.372       .  A
C430        H433   1.082       .  S
C431        C432   1.382       .  A
C431        H434   1.082       .  S
C432       C3447   1.484       .  S
N435        N436   1.323       .  A
N435        C439   1.349       .  A
N435       Cu443   2.097       .  S
N436        C437   1.346       .  A
N436       Cu442   2.081       .  S
C437        C438   1.387       .  A
C437        H440   1.081       .  S
C438        C439   1.391       .  A
C438       C3381   1.491       .  S
C439        H441   1.082       .  S
Cu442       N445   2.081       .  S
Cu443       N453   2.096       .  S
Cu444       N446   2.077       .  S
Cu444       N452   2.077       .  S
N445        N446   1.321       .  A
N445        C449   1.347       .  A
N446        C447   1.345       .  A
C447        C448   1.389       .  A
C447        H450   1.081       .  S
C448        C449   1.390       .  A
C448       C3403   1.490       .  S
C449        H451   1.081       .  S
N452        N453   1.322       .  A
N452        C456   1.346       .  A
N453        C454   1.347       .  A
C454        C455   1.394       .  A
C454        H457   1.081       .  S
C455        C456   1.389       .  A
C455       C3359   1.496       .  S
C456        H458   1.081       .  S
N459        C463   1.365       .  A
N459        C460   1.365       .  A
N459       C3415   1.442       .  S
C460        C461   1.384       .  A
C460       C3349   1.494       .  S
C461        C462   1.372       .  A
C461        H464   1.082       .  S
C462        C463   1.381       .  A
C462        H465   1.082       .  S
C463       C4295   1.490       .  S
N466        N467   1.321       .  A
N466        C470   1.347       .  A
N466       Cu474   2.096       .  S
N467        C468   1.349       .  A
N467       Cu473   2.086       .  S
C468        C469   1.392       .  A
C468        H471   1.081       .  S
C469        C470   1.394       .  A
C469       C3293   1.500   1_565  S
C470        H472   1.081       .  S
Cu473       N476   2.087       .  S
Cu474       N484   2.096       .  S
Cu475       N477   2.097       .  S
Cu475       N483   2.097       .  S
N476        N477   1.323       .  A
N476        C480   1.346       .  A
N477        C478   1.349       .  A
C478        C479   1.391       .  A
C478        H481   1.081       .  S
C479        C480   1.389       .  A
C479       C3315   1.495       .  S
C480        H482   1.081       .  S
N483        N484   1.322       .  A
N483        C487   1.352       .  A
N484        C485   1.346       .  A
C485        C486   1.392       .  A
C485        H488   1.081       .  S
C486        C487   1.394       .  A
C486       C3337   1.502       .  S
C487        H489   1.081       .  S
N490        C494   1.360       .  A
N490        C491   1.362       .  A
N490       C3327   1.442       .  S
C491        C492   1.384       .  A
C491       C3503   1.485       .  S
C492        C493   1.373       .  A
C492        H495   1.082       .  S
C493        C494   1.381       .  A
C493        H496   1.082       .  S
C494       C3557   1.481       .  S
N497        N498   1.322       .  A
N497        C501   1.347       .  A
N497       Cu505   2.084       .  S
N498        C499   1.345       .  A
N498       Cu504   2.079       .  S
C499        C500   1.389       .  A
C499        H502   1.081       .  S
C500        C501   1.391       .  A
C500       C3437   1.492       .  S
C501        H503   1.081       .  S
Cu504       N507   2.079       .  S
Cu505       N515   2.083       .  S
Cu506       N508   2.067       .  S
Cu506       N514   2.067       .  S
N507        N508   1.320       .  A
N507        C511   1.346       .  A
N508        C509   1.342       .  A
C509        C510   1.388       .  A
C509        H512   1.081       .  S
C510        C511   1.391       .  A
C510       C3271   1.489       .  S
C511        H513   1.081       .  S
N514        N515   1.321       .  A
N514        C518   1.345       .  A
N515        C516   1.345       .  A
C516        C517   1.390   1_565  A
C516        H519   1.081   1_565  S
C517        C518   1.387   1_545  A
C517       C3701   1.487       .  S
C518        H520   1.081       .  S
N521        C525   1.362       .  A
N521        C522   1.361       .  A
N521       C3283   1.442       .  S
C522        C523   1.380       .  A
C522       C3393   1.480       .  S
C523        C524   1.372       .  A
C523        H526   1.082       .  S
C524        C525   1.383       .  A
C524        H527   1.082       .  S
C525       C3261   1.485       .  S
N528        N529   1.323       .  A
N528        C532   1.348       .  A
N528       Cu536   2.098       .  S
N529        C530   1.347       .  A
N529       Cu535   2.089       .  S
C530        C531   1.390       .  A
C530        H533   1.081       .  S
C531        C532   1.393       .  A
C531       C3249   1.498       .  S
C532        H534   1.081       .  S
Cu535       N538   2.089       .  S
Cu536       N546   2.097       .  S
Cu537       N539   2.079       .  S
Cu537       N545   2.078       .  S
N538        N539   1.321       .  A
N538        C542   1.349       .  A
N539        C540   1.345       .  A
C540        C541   1.389       .  A
C540        H543   1.081       .  S
C541        C542   1.392       .  A
C541       C3227   1.493       .  S
C542        H544   1.081       .  S
N545        N546   1.322       .  A
N545        C549   1.346       .  A
N546        C547   1.348       .  A
C547        C548   1.394       .  A
C547        H550   1.081       .  S
C548        C549   1.389       .  A
C548       C3205   1.496       .  S
C549        H551   1.081       .  S
N552        C556   1.364       .  A
N552        C553   1.366       .  A
N552       C3239   1.443       .  S
C553        C554   1.385       .  A
C553       C3183   1.494       .  S
C554        C555   1.369       .  A
C554        H557   1.082       .  S
C555        C556   1.380       .  A
C555        H558   1.082       .  S
C556       C3789   1.487       .  S
N559        N560   1.322       .  A
N559        C563   1.348       .  A
N559       Cu567   2.089       .  S
N560        C561   1.343       .  A
N560       Cu566   2.074       .  S
C561        C562   1.388       .  A
C561        H564   1.081       .  S
C562        C563   1.392       .  A
C562       C3139   1.492       .  S
C563        H565   1.081       .  S
Cu566       N569   2.074       .  S
Cu567       N577   2.089       .  S
Cu568       N570   2.074       .  S
Cu568       N576   2.074       .  S
N569        N570   1.320       .  A
N569        C573   1.346       .  A
N570        C571   1.344       .  A
C571        C572   1.389       .  A
C571        H574   1.081       .  S
C572        C573   1.389       .  A
C572       C3161   1.488       .  S
C573        H575   1.081       .  S
N576        N577   1.322       .  A
N576        C580   1.345       .  A
N577        C578   1.346       .  A
C578        C579   1.391       .  A
C578        H581   1.081       .  S
C579        C580   1.387       .  A
C579       C3129   1.491       .  S
C580        H582   1.081       .  S
N583        C587   1.366       .  A
N583        C584   1.364       .  A
N583       C3173   1.440       .  S
C584        C585   1.382       .  A
C584       C3095   1.492       .  S
C585        C586   1.373       .  A
C585        H588   1.082       .  S
C586        C587   1.383       .  A
C586        H589   1.082       .  S
C587       C3073   1.496       .  S
N590        N591   1.322       .  A
N590        C594   1.350       .  A
N590       Cu598   2.110       .  S
N591        C592   1.349       .  A
N591       Cu597   2.088       .  S
C592        C593   1.391       .  A
C592        H595   1.081       .  S
C593        C594   1.396       .  A
C593       C3107   1.504       .  S
C594        H596   1.081       .  S
Cu597       N600   2.087       .  S
Cu598       N608   2.110       .  S
Cu599       N601   2.080       .  S
Cu599       N607   2.081       .  S
N600        N601   1.322       .  A
N600        C604   1.346       .  A
N601        C602   1.347       .  A
C602        C603   1.389       .  A
C602        H605   1.081       .  S
C603        C604   1.390       .  A
C603       C3051   1.492       .  S
C604        H606   1.081       .  S
N607        N608   1.322       .  A
N607        C611   1.347       .  A
N608        C609   1.350   1_556  A
C609        C610   1.396       .  A
C609        H612   1.081       .  S
C610        C611   1.390   1_554  A
C610       C4173   1.502       .  S
C611        H613   1.081       .  S
N614        C618   1.361       .  A
N614        C615   1.360       .  A
N614       C3063   1.437       .  S
C615        C616   1.382       .  A
C615       C4481   1.485       .  S
C616        C617   1.374       .  A
C616        H619   1.082       .  S
C617        C618   1.384       .  A
C617        H620   1.082       .  S
C618       C3217   1.488       .  S
N621        N622   1.322       .  A
N621        C625   1.348   1_556  A
N621       Cu629   2.101       .  S
N622        C623   1.346       .  A
N622       Cu628   2.078       .  S
C623        C624   1.389   1_556  A
C623        H626   1.081       .  S
C624        C625   1.394       .  A
C624       C3007   1.498       .  S
C625        H627   1.081       .  S
Cu628       N631   2.077       .  S
Cu629       N639   2.101       .  S
Cu630       N632   2.078       .  S
Cu630       N638   2.078       .  S
N631        N632   1.321       .  A
N631        C635   1.346       .  A
N632        C633   1.344       .  A
C633        C634   1.389       .  A
C633        H636   1.081       .  S
C634        C635   1.389       .  A
C634       C3029   1.489       .  S
C635        H637   1.081       .  S
N638        N639   1.322       .  A
N638        C642   1.347       .  A
N639        C640   1.349       .  A
C640        C641   1.395       .  A
C640        H643   1.081       .  S
C641        C642   1.389       .  A
C641       C3195   1.498       .  S
C642        H644   1.081       .  S
N645        C649   1.359       .  A
N645        C646   1.360       .  A
N645       C3041   1.441       .  S
C646        C647   1.382       .  A
C646       C3151   1.481       .  S
C647        C648   1.374       .  A
C647        H650   1.082       .  S
C648        C649   1.383       .  A
C648        H651   1.082       .  S
C649       C2985   1.482       .  S
N652        N653   1.321       .  A
N652        C656   1.346       .  A
N652       Cu660   2.087       .  S
N653        C654   1.346       .  A
N653       Cu659   2.077       .  S
C654        C655   1.390       .  A
C654        H657   1.081       .  S
C655        C656   1.393       .  A
C655       C2919   1.495       .  S
C656        H658   1.081       .  S
Cu659       N662   2.078       .  S
Cu660       N670   2.087       .  S
Cu661       N663   2.082       .  S
Cu661       N669   2.082       .  S
N662        N663   1.322       .  A
N662        C666   1.345       .  A
N663        C664   1.346       .  A
C664        C665   1.389       .  A
C664        H667   1.081       .  S
C665        C666   1.388       .  A
C665       C2963   1.489       .  S
C666        H668   1.081       .  S
N669        N670   1.322       .  A
N669        C673   1.348       .  A
N670        C671   1.345       .  A
C671        C672   1.390       .  A
C671        H674   1.081       .  S
C672        C673   1.390       .  A
C672       C2941   1.493       .  S
C673        H675   1.081       .  S
N676        C680   1.363       .  A
N676        C677   1.362       .  A
N676       C2975   1.443       .  S
C677        C678   1.381       .  A
C677       C2875   1.484       .  S
C678        C679   1.372       .  A
C678        H681   1.082       .  S
C679        C680   1.383       .  A
C679        H682   1.082       .  S
C680       C2897   1.486       .  S
N683        N684   1.321       .  A
N683        C687   1.347       .  A
N683       Cu691   2.093       .  S
N684        C685   1.348       .  A
N684       Cu690   2.083       .  S
C685        C686   1.391       .  A
C685        H688   1.081       .  S
C686        C687   1.393       .  A
C686       C2831   1.498       .  S
C687        H689   1.081       .  S
Cu690       N693   2.083       .  S
Cu691       N701   2.093   1_655  S
Cu692       N694   2.088       .  S
Cu692       N700   2.088       .  S
N693        N694   1.322       .  A
N693        C697   1.345       .  A
N694        C695   1.347       .  A
C695        C696   1.390       .  A
C695        H698   1.081       .  S
C696        C697   1.389       .  A
C696       C2853   1.492       .  S
C697        H699   1.081       .  S
N700        N701   1.322   1_655  A
N700        C704   1.349   1_655  A
N701        C702   1.346       .  A
C702        C703   1.393       .  A
C702        H705   1.081       .  S
C703        C704   1.392       .  A
C703       C2809   1.499       .  S
C704        H706   1.081       .  S
N707        C711   1.361       .  A
N707        C708   1.360       .  A
N707       C2865   1.442       .  S
C708        C709   1.381       .  A
C708       C3481   1.481       .  S
C709        C710   1.373       .  A
C709        H712   1.082       .  S
C710        C711   1.383       .  A
C710        H713   1.082       .  S
C711       C2953   1.483       .  S
N714        N715   1.321       .  A
N714        C718   1.349       .  A
N714       Cu722   2.099       .  S
N715        C716   1.344       .  A
N715       Cu721   2.076       .  S
C716        C717   1.389       .  A
C716        H719   1.081       .  S
C717        C718   1.395       .  A
C717       C2765   1.497       .  S
C718        H720   1.081       .  S
Cu721       N724   2.076       .  S
Cu722       N732   2.099       .  S
Cu723       N725   2.080       .  S
Cu723       N731   2.080       .  S
N724        N725   1.321       .  A
N724        C728   1.346       .  A
N725        C726   1.345       .  A
C726        C727   1.389       .  A
C726        H729   1.081       .  S
C727        C728   1.389       .  A
C727       C2787   1.489       .  S
C728        H730   1.081       .  S
N731        N732   1.323       .  A
N731        C735   1.348       .  A
N732        C733   1.347       .  A
C733        C734   1.392       .  A
C733        H736   1.081       .  S
C734        C735   1.389       .  A
C734       C2997   1.495       .  S
C735        H737   1.081       .  S
N738        C742   1.365       .  A
N738        C739   1.366       .  A
N738       C2799   1.445       .  S
C739        C740   1.382       .  A
C739       C2743   1.490       .  S
C740        C741   1.370       .  A
C740        H743   1.082       .  S
C741        C742   1.383       .  A
C741        H744   1.082       .  S
C742       C2843   1.489       .  S
N745        N746   1.322       .  A
N745        C749   1.349       .  A
N745       Cu753   2.101       .  S
N746        C747   1.345       .  A
N746       Cu752   2.074       .  S
C747        C748   1.388       .  A
C747        H750   1.081       .  S
C748        C749   1.394       .  A
C748       C2909   1.496       .  S
C749        H751   1.081       .  S
Cu752       N755   2.073       .  S
Cu753       N763   2.101       .  S
Cu754       N756   2.069       .  S
Cu754       N762   2.070       .  S
N755        N756   1.320       .  A
N755        C759   1.345       .  A
N756        C757   1.343       .  A
C757        C758   1.389       .  A
C757        H760   1.081       .  S
C758        C759   1.390       .  A
C758       C2721   1.489       .  S
C759        H761   1.081       .  S
N762        N763   1.322       .  A
N762        C766   1.345   1_655  A
N763        C764   1.348   1_655  A
C764        C765   1.394       .  A
C764        H767   1.081       .  S
C765        C766   1.387       .  A
C765       C2699   1.495       .  S
C766        H768   1.081       .  S
N769        C773   1.358       .  A
N769        C770   1.360       .  A
N769       C2733   1.438       .  S
C770        C771   1.384       .  A
C770       C2777   1.487       .  S
C771        C772   1.375       .  A
C771        H774   1.082       .  S
C772        C773   1.382       .  A
C772        H775   1.082       .  S
C773       C4119   1.482       .  S
N776        N777   1.323       .  A
N776        C780   1.349       .  A
N776       Cu784   2.103       .  S
N777        C778   1.347       .  A
N777       Cu783   2.082       .  S
C778        C779   1.389       .  A
C778        H781   1.081       .  S
C779        C780   1.393       .  A
C779       C2655   1.495       .  S
C780        H782   1.081       .  S
Cu783       N786   2.082       .  S
Cu784       N794   2.103       .  S
Cu785       N787   2.092       .  S
Cu785       N793   2.093       .  S
N786        N787   1.322       .  A
N786        C790   1.347       .  A
N787        C788   1.347       .  A
C788        C789   1.390       .  A
C788        H791   1.081       .  S
C789        C790   1.389       .  A
C789       C2677   1.492       .  S
C790        H792   1.082       .  S
N793        N794   1.322       .  A
N793        C797   1.349       .  A
N794        C795   1.350       .  A
C795        C796   1.395       .  A
C795        H798   1.081       .  S
C796        C797   1.392       .  A
C796       C3085   1.503       .  S
C797        H799   1.081       .  S
N800        C804   1.367       .  A
N800        C801   1.366       .  A
N800       C2689   1.447       .  S
C801        C802   1.382       .  A
C801       C2633   1.489       .  S
C802        C803   1.371       .  A
C802        H805   1.082       .  S
C803        C804   1.383       .  A
C803        H806   1.082       .  S
C804       C2611   1.490       .  S
N807        N808   1.322       .  A
N807        C811   1.349       .  A
N807       Cu815   2.096       .  S
N808        C809   1.347       .  A
N808       Cu814   2.085       .  S
C809        C810   1.391       .  A
C809        H812   1.081       .  S
C810        C811   1.394       .  A
C810       C4019   1.499       .  S
C811        H813   1.081       .  S
Cu814       N817   2.085       .  S
Cu815       N825   2.096       .  S
Cu816       N818   2.091       .  S
Cu816       N824   2.091       .  S
N817        N818   1.322       .  A
N817        C821   1.348       .  A
N818        C819   1.347       .  A
C819        C820   1.391       .  A
C819        H822   1.081       .  S
C820        C821   1.390       .  A
C820       C2589   1.493       .  S
C821        H823   1.081       .  S
N824        N825   1.322       .  A
N824        C828   1.349       .  A
N825        C826   1.347   1_556  A
C826        C827   1.393       .  A
C826        H829   1.081       .  S
C827        C828   1.392   1_554  A
C827       C2579   1.500       .  S
C828        H830   1.081       .  S
N831        C835   1.362       .  A
N831        C832   1.363       .  A
N831       C2601   1.444       .  S
C832        C833   1.382       .  A
C832       C2667   1.486       .  S
C833        C834   1.373       .  A
C833        H836   1.082       .  S
C834        C835   1.382       .  A
C834        H837   1.082       .  S
C835       C2711   1.482       .  S
N838        N839   1.322       .  A
N838        C842   1.347       .  A
N838       Cu846   2.091       .  S
N839        C840   1.346       .  A
N839       Cu845   2.074       .  S
C840        C841   1.386       .  A
C840        H843   1.082       .  S
C841        C842   1.389       .  A
C841       C2523   1.486       .  S
C842        H844   1.082       .  S
Cu845       N848   2.074       .  S
Cu846       N856   2.091       .  S
Cu847       N849   2.079       .  S
Cu847       N855   2.079       .  S
N848        N849   1.321       .  A
N848        C852   1.345       .  A
N849        C850   1.345       .  A
C850        C851   1.389       .  A
C850        H853   1.081       .  S
C851        C852   1.388       .  A
C851       C2545   1.489       .  S
C852        H854   1.081       .  S
N855        N856   1.322       .  A
N855        C859   1.346       .  A
N856        C857   1.347       .  A
C857        C858   1.392       .  A
C857        H860   1.081       .  S
C858        C859   1.389       .  A
C858       C3931   1.494       .  S
C859        H861   1.081       .  S
N862        C866   1.363       .  A
N862        C863   1.363       .  A
N862       C2557   1.440       .  S
C863        C864   1.383       .  A
C863       C2567   1.490       .  S
C864        C865   1.373       .  A
C864        H867   1.082       .  S
C865        C866   1.383       .  A
C865        H868   1.082       .  S
C866       C2501   1.490       .  S
N869        N870   1.323       .  A
N869        C873   1.347       .  A
N869       Cu877   2.093       .  S
N870        C871   1.350       .  A
N870       Cu876   2.098       .  S
C871        C872   1.393       .  A
C871        H874   1.081       .  S
C872        C873   1.392       .  A
C872       C2469   1.501       .  S
C873        H875   1.081       .  S
Cu876       N879   2.098       .  S
Cu877       N887   2.093       .  S
Cu878       N880   2.083       .  S
Cu878       N886   2.083       .  S
N879        N880   1.323       .  A
N879        C883   1.349       .  A
N880        C881   1.346       .  A
C881        C882   1.387       .  A
C881        H884   1.082       .  S
C882        C883   1.391       .  A
C882       C2491   1.491       .  S
C883        H885   1.082       .  S
N886        N887   1.321       .  A
N886        C890   1.347       .  A
N887        C888   1.348   1_554  A
C888        C889   1.394       .  A
C888        H891   1.081       .  S
C889        C890   1.391   1_556  A
C889       C2645   1.498       .  S
C890        H892   1.081       .  S
N893        C897   1.357       .  A
N893        C894   1.368       .  A
N893       C2479   1.436       .  S
C894        C895   1.393       .  A
C894       C2435   1.509       .  S
C895        C896   1.371       .  A
C895        H898   1.081       .  S
C896        C897   1.374       .  A
C896        H899   1.082       .  S
C897       C2535   1.476       .  S
N900        N901   1.321       .  A
N900        C904   1.347       .  A
N900       Cu908   2.090       .  S
N901        C902   1.347       .  A
N901       Cu907   2.082       .  S
C902        C903   1.390       .  A
C902        H905   1.081       .  S
C903        C904   1.393       .  A
C903       C2391   1.496       .  S
C904        H906   1.081       .  S
Cu907       N910   2.081       .  S
Cu908       N918   2.090       .  S
Cu909       N911   2.078       .  S
Cu909       N917   2.077       .  S
N910        N911   1.321       .  A
N910        C914   1.346       .  A
N911        C912   1.345       .  A
C912        C913   1.389       .  A
C912        H915   1.081       .  S
C913        C914   1.389       .  A
C913       C2413   1.490       .  S
C914        H916   1.081       .  S
N917        N918   1.322       .  A
N917        C921   1.346       .  A
N918        C919   1.346       .  A
C919        C920   1.392       .  A
C919        H922   1.081       .  S
C920        C921   1.389       .  A
C920       C3679   1.493       .  S
C921        H923   1.081       .  S
N924        C928   1.364       .  A
N924        C925   1.364       .  A
N924       C2425   1.444       .  S
C925        C926   1.382       .  A
C925       C2369   1.487       .  S
C926        C927   1.369       .  A
C926        H929   1.082       .  S
C927        C928   1.382       .  A
C927        H930   1.082       .  S
C928       C2931   1.487       .  S
N931        N932   1.321       .  A
N931        C935   1.347       .  A
N931       Cu939   2.089       .  S
N932        C933   1.347       .  A
N932       Cu938   2.087       .  S
C933        C934   1.392       .  A
C933        H936   1.081       .  S
C934        C935   1.392       .  A
C934       C2325   1.498       .  S
C935        H937   1.081       .  S
Cu938       N941   2.088       .  S
Cu939       N949   2.089       .  S
Cu940       N942   2.091       .  S
Cu940       N948   2.090       .  S
N941        N942   1.322       .  A
N941        C945   1.346       .  A
N942        C943   1.348       .  A
C943        C944   1.391       .  A
C943        H946   1.081       .  S
C944        C945   1.391       .  A
C944       C2359   1.496       .  S
C945        H947   1.081       .  S
N948        N949   1.324       .  A
N948        C952   1.349       .  A
N949        C950   1.347       .  A
C950        C951   1.386       .  A
C950        H953   1.082       .  S
C951        C952   1.386       .  A
C951       C2447   1.483       .  S
C952        H954   1.082       .  S
N955        C959   1.364       .  A
N955        C956   1.363       .  A
N955       C2347   1.444       .  S
C956        C957   1.381       .  A
C956       C3877   1.483       .  S
C957        C958   1.370       .  A
C957        H960   1.082       .  S
C958        C959   1.384       .  A
C958        H961   1.082       .  S
C959       C2303   1.488       .  S
N962        N963   1.322       .  A
N962        C966   1.349       .  A
N962       Cu970   2.098       .  S
N963        C964   1.346       .  A
N963       Cu969   2.079       .  S
C964        C965   1.388       .  A
C964        H967   1.082       .  S
C965        C966   1.391       .  A
C965       C2237   1.492       .  S
C966        H968   1.082       .  S
Cu969       N972   2.078       .  S
Cu970       N980   2.098       .  S
Cu971       N973   2.077       .  S
Cu971       N979   2.078       .  S
N972        N973   1.321       .  A
N972        C976   1.345       .  A
N973        C974   1.346       .  A
C974        C975   1.388       .  A
C974        H977   1.082       .  S
C975        C976   1.388       .  A
C975       C2281   1.486       .  S
C976        H978   1.081       .  S
N979        N980   1.322       .  A
N979        C983   1.346       .  A
N980        C981   1.348       .  A
C981        C982   1.394       .  A
C981        H984   1.081       .  S
C982        C983   1.389       .  A
C982       C2259   1.496       .  S
C983        H985   1.081       .  S
N986        C990   1.363       .  A
N986        C987   1.364       .  A
N986       C2293   1.444       .  S
C987        C988   1.384       .  A
C987       C2403   1.490       .  S
C988        C989   1.371       .  A
C988        H991   1.082       .  S
C989        C990   1.381       .  A
C989        H992   1.082       .  S
C990       C2337   1.485       .  S
N993        N994   1.321       .  A
N993        C997   1.349       .  A
N993      Cu1001   2.092       .  S
N994        C995   1.345       .  A
N994      Cu1000   2.077       .  S
C995        C996   1.389   1_455  A
C995        H998   1.081       .  S
C996        C997   1.393   1_655  A
C996       C3459   1.494       .  S
C997        H999   1.081   1_455  S
Cu1000     N1003   2.077       .  S
Cu1001     N1011   2.092       .  S
Cu1002     N1004   2.083       .  S
Cu1002     N1010   2.083       .  S
N1003      N1004   1.321       .  A
N1003      C1007   1.344       .  A
N1004      C1005   1.347       .  A
C1005      C1006   1.391       .  A
C1005      H1008   1.081       .  S
C1006      C1007   1.389       .  A
C1006      C2227   1.492       .  S
C1007      H1009   1.081       .  S
N1010      N1011   1.323       .  A
N1010      C1014   1.347       .  A
N1011      C1012   1.346       .  A
C1012      C1013   1.390       .  A
C1012      H1015   1.081       .  S
C1013      C1014   1.388       .  A
C1013      C4449   1.492       .  S
C1014      H1016   1.081       .  S
N1017      C1021   1.365       .  A
N1017      C1018   1.362       .  A
N1017      C2215   1.442       .  S
C1018      C1019   1.380       .  A
C1018      C4613   1.486       .  S
C1019      C1020   1.371       .  A
C1019      H1022   1.082       .  S
C1020      C1021   1.385       .  A
C1020      H1023   1.082       .  S
C1021      C2193   1.492       .  S
N1024      N1025   1.322       .  A
N1024      C1028   1.347       .  A
N1024     Cu1032   2.091       .  S
N1025      C1026   1.345       .  A
N1025     Cu1031   2.079       .  S
C1026      C1027   1.389       .  A
C1026      H1029   1.081       .  S
C1027      C1028   1.393       .  A
C1027      C2149   1.496       .  S
C1028      H1030   1.081       .  S
Cu1031     N1034   2.079       .  S
Cu1032     N1042   2.091       .  S
Cu1033     N1035   2.080       .  S
Cu1033     N1041   2.080       .  S
N1034      N1035   1.321       .  A
N1034      C1038   1.346       .  A
N1035      C1036   1.345       .  A
C1036      C1037   1.390       .  A
C1036      H1039   1.081       .  S
C1037      C1038   1.390       .  A
C1037      C2183   1.492       .  S
C1038      H1040   1.081       .  S
N1041      N1042   1.322       .  A
N1041      C1045   1.346       .  A
N1042      C1043   1.347       .  A
C1043      C1044   1.392       .  A
C1043      H1046   1.081       .  S
C1044      C1045   1.389       .  A
C1044      C3855   1.494       .  S
C1045      H1047   1.081       .  S
N1048      C1052   1.361       .  A
N1048      C1049   1.362       .  A
N1048      C2171   1.439       .  S
C1049      C1050   1.384       .  A
C1049      C2457   1.490       .  S
C1050      C1051   1.375       .  A
C1050      H1053   1.082       .  S
C1051      C1052   1.382       .  A
C1051      H1054   1.082       .  S
C1052      C4207   1.488       .  S
N1055      N1056   1.324   1_565  A
N1055      C1059   1.347       .  A
N1055     Cu1063   2.094   1_565  S
N1056      C1057   1.348   1_545  A
N1056     Cu1062   2.094       .  S
C1057      C1058   1.391       .  A
C1057      H1060   1.081       .  S
C1058      C1059   1.392       .  A
C1058      C4273   1.498       .  S
C1059      H1061   1.081       .  S
Cu1062     N1065   2.094       .  S
Cu1063     N1073   2.093       .  S
Cu1064     N1066   2.075       .  S
Cu1064     N1072   2.075       .  S
N1065      N1066   1.321       .  A
N1065      C1069   1.350       .  A
N1066      C1067   1.343       .  A
C1067      C1068   1.388       .  A
C1067      H1070   1.081       .  S
C1068      C1069   1.393       .  A
C1068      C2139   1.493       .  S
C1069      H1071   1.081       .  S
N1072      N1073   1.320       .  A
N1072      C1076   1.345       .  A
N1073      C1074   1.349       .  A
C1074      C1075   1.395       .  A
C1074      H1077   1.081       .  S
C1075      C1076   1.390       .  A
C1075      C2117   1.497       .  S
C1076      H1078   1.081       .  S
N1079      C1083   1.363       .  A
N1079      C1080   1.363       .  A
N1079      C2127   1.445       .  S
C1080      C1081   1.383       .  A
C1080      C2161   1.485       .  S
C1081      C1082   1.370       .  A
C1081      H1084   1.082       .  S
C1082      C1083   1.381       .  A
C1082      H1085   1.082       .  S
C1083      C2083   1.483       .  S
N1086      N1087   1.322       .  A
N1086      C1090   1.346       .  A
N1086     Cu1094   2.095       .  S
N1087      C1088   1.348       .  A
N1087     Cu1093   2.084       .  S
C1088      C1089   1.391       .  A
C1088      H1091   1.081       .  S
C1089      C1090   1.393       .  A
C1089      C2029   1.498       .  S
C1090      H1092   1.081       .  S
Cu1093     N1096   2.084       .  S
Cu1094     N1104   2.094       .  S
Cu1095     N1097   2.079       .  S
Cu1095     N1103   2.079       .  S
N1096      N1097   1.322       .  A
N1096      C1100   1.346       .  A
N1097      C1098   1.345       .  A
C1098      C1099   1.389       .  A
C1098      H1101   1.081       .  S
C1099      C1100   1.390       .  A
C1099      C2061   1.491       .  S
C1100      H1102   1.081       .  S
N1103      N1104   1.321       .  A
N1103      C1107   1.345       .  A
N1104      C1105   1.349       .  A
C1105      C1106   1.394       .  A
C1105      H1108   1.081       .  S
C1106      C1107   1.390       .  A
C1106      C2039   1.497       .  S
C1107      H1109   1.081       .  S
N1110      C1114   1.359       .  A
N1110      C1111   1.361       .  A
N1110      C2073   1.440       .  S
C1111      C1112   1.385       .  A
C1111      C1995   1.485       .  S
C1112      C1113   1.372       .  A
C1112      H1115   1.082       .  S
C1113      C1114   1.380       .  A
C1113      H1116   1.082       .  S
C1114      C3117   1.479       .  S
N1117      N1118   1.321       .  A
N1117      C1121   1.347       .  A
N1117     Cu1125   2.092       .  S
N1118      C1119   1.346       .  A
N1118     Cu1124   2.078       .  S
C1119      C1120   1.389       .  A
C1119      H1122   1.081       .  S
C1120      C1121   1.392       .  A
C1120      C2095   1.495       .  S
C1121      H1123   1.081       .  S
Cu1124     N1127   2.078       .  S
Cu1125     N1135   2.092       .  S
Cu1126     N1128   2.079       .  S
Cu1126     N1134   2.079       .  S
N1127      N1128   1.321       .  A
N1127      C1131   1.345       .  A
N1128      C1129   1.346       .  A
C1129      C1130   1.389       .  A
C1129      H1132   1.081       .  S
C1130      C1131   1.388       .  A
C1130      C1973   1.488       .  S
C1131      H1133   1.081       .  S
N1134      N1135   1.322       .  A
N1134      C1138   1.347       .  A
N1135      C1136   1.347       .  A
C1136      C1137   1.392       .  A
C1136      H1139   1.081       .  S
C1137      C1138   1.389       .  A
C1137      C1963   1.495       .  S
C1138      H1140   1.081       .  S
N1141      C1145   1.362       .  A
N1141      C1142   1.361       .  A
N1141      C1985   1.441       .  S
C1142      C1143   1.380       .  A
C1142      C3723   1.482       .  S
C1143      C1144   1.372       .  A
C1143      H1146   1.082       .  S
C1144      C1145   1.385       .  A
C1144      H1147   1.082       .  S
C1145      C4603   1.488       .  S
N1148      N1149   1.323       .  A
N1148      C1152   1.349       .  A
N1148     Cu1156   2.103       .  S
N1149      C1150   1.349       .  A
N1149     Cu1155   2.098       .  S
C1150      C1151   1.392       .  A
C1150      H1153   1.081       .  S
C1151      C1152   1.394       .  A
C1151      C2623   1.502       .  S
C1152      H1154   1.081       .  S
Cu1155     N1158   2.097       .  S
Cu1156     N1166   2.102       .  S
Cu1157     N1159   2.077       .  S
Cu1157     N1165   2.077       .  S
N1158      N1159   1.322       .  A
N1158      C1162   1.349       .  A
N1159      C1160   1.345       .  A
C1160      C1161   1.387       .  A
C1160      H1163   1.081       .  S
C1161      C1162   1.392       .  A
C1161      C1929   1.492       .  S
C1162      H1164   1.081       .  S
N1165      N1166   1.321       .  A
N1165      C1169   1.347       .  A
N1166      C1167   1.349       .  A
C1167      C1168   1.395       .  A
C1167      H1170   1.081       .  S
C1168      C1169   1.389       .  A
C1168      C2381   1.499       .  S
C1169      H1171   1.081       .  S
N1172      C1176   1.366       .  A
N1172      C1173   1.364       .  A
N1172      C1941   1.445       .  S
C1173      C1174   1.381       .  A
C1173      C1951   1.485       .  S
C1174      C1175   1.370       .  A
C1174      H1177   1.082       .  S
C1175      C1176   1.384       .  A
C1175      H1178   1.082       .  S
C1176      C2051   1.491       .  S
N1179      N1180   1.321       .  A
N1179      C1183   1.348       .  A
N1179     Cu1187   2.090       .  S
N1180      C1181   1.347       .  A
N1180     Cu1186   2.088       .  S
C1181      C1182   1.392       .  A
C1181      H1184   1.081       .  S
C1182      C1183   1.393       .  A
C1182      C2205   1.498       .  S
C1183      H1185   1.081       .  S
Cu1186     N1189   2.088       .  S
Cu1187     N1197   2.090       .  S
Cu1188     N1190   2.085       .  S
Cu1188     N1196   2.085       .  S
N1189      N1190   1.322       .  A
N1189      C1193   1.346       .  A
N1190      C1191   1.347       .  A
C1191      C1192   1.391       .  A
C1191      H1194   1.081       .  S
C1192      C1193   1.391       .  A
C1192      C1907   1.495       .  S
C1193      H1195   1.081       .  S
N1196      N1197   1.322       .  A
N1196      C1200   1.347       .  A
N1197      C1198   1.346       .  A
C1198      C1199   1.392       .  A
C1198      H1201   1.081       .  S
C1199      C1200   1.391       .  A
C1199      C1885   1.496       .  S
C1200      H1202   1.081       .  S
N1203      C1207   1.365       .  A
N1203      C1204   1.364       .  A
N1203      C1919   1.443       .  S
C1204      C1205   1.382       .  A
C1204      C2017   1.487       .  S
C1205      C1206   1.370       .  A
C1205      H1208   1.082       .  S
C1206      C1207   1.383       .  A
C1206      H1209   1.082       .  S
C1207      C2821   1.491       .  S
N1210      N1211   1.322       .  A
N1210      C1214   1.347       .  A
N1210     Cu1218   2.101       .  S
N1211      C1212   1.348       .  A
N1211     Cu1217   2.079       .  S
C1212      C1213   1.390       .  A
C1212      H1215   1.081       .  S
C1213      C1214   1.394       .  A
C1213      C3547   1.497       .  S
C1214      H1216   1.081       .  S
Cu1217     N1220   2.078       .  S
Cu1218     N1228   2.100       .  S
Cu1219     N1221   2.075       .  S
Cu1219     N1227   2.075       .  S
N1220      N1221   1.321       .  A
N1220      C1224   1.345       .  A
N1221      C1222   1.346       .  A
C1222      C1223   1.388       .  A
C1222      H1225   1.081       .  S
C1223      C1224   1.388       .  A
C1223      C1875   1.486       .  S
C1224      H1226   1.081       .  S
N1227      N1228   1.322       .  A
N1227      C1231   1.345   1_554  A
N1228      C1229   1.349   1_554  A
C1229      C1230   1.394       .  A
C1229      H1232   1.081       .  S
C1230      C1231   1.389       .  A
C1230      C2755   1.497       .  S
C1231      H1233   1.081       .  S
N1234      C1238   1.366       .  A
N1234      C1235   1.366       .  A
N1234      C1863   1.444       .  S
C1235      C1236   1.382       .  A
C1235      C3975   1.489       .  S
C1236      C1237   1.370       .  A
C1236      H1239   1.082       .  S
C1237      C1238   1.382       .  A
C1237      H1240   1.082       .  S
C1238      C1841   1.491       .  S
N1241      N1242   1.323       .  A
N1241      C1245   1.349       .  A
N1241     Cu1249   2.103       .  S
N1242      C1243   1.346       .  A
N1242     Cu1248   2.081       .  S
C1243      C1244   1.388       .  A
C1243      H1246   1.081       .  S
C1244      C1245   1.393       .  A
C1244      C2315   1.496       .  S
C1245      H1247   1.081       .  S
Cu1248     N1251   2.081       .  S
Cu1249     N1259   2.103       .  S
Cu1250     N1252   2.069       .  S
Cu1250     N1258   2.069       .  S
N1251      N1252   1.320       .  A
N1251      C1255   1.346       .  A
N1252      C1253   1.344       .  A
C1253      C1254   1.387       .  A
C1253      H1256   1.081       .  S
C1254      C1255   1.390       .  A
C1254      C1819   1.487       .  S
C1255      H1257   1.081       .  S
N1258      N1259   1.321       .  A
N1258      C1262   1.344       .  A
N1259      C1260   1.350       .  A
C1260      C1261   1.395       .  A
C1260      H1263   1.081       .  S
C1261      C1262   1.387       .  A
C1261      C1853   1.495       .  S
C1262      H1264   1.081       .  S
N1265      C1269   1.363       .  A
N1265      C1266   1.363       .  A
N1265      C1831   1.442       .  S
C1266      C1267   1.383       .  A
C1266      C3019   1.489       .  S
C1267      C1268   1.371       .  A
C1267      H1270   1.082       .  S
C1268      C1269   1.383       .  A
C1268      H1271   1.082       .  S
C1269      C1809   1.488       .  S
N1272      N1273   1.321       .  A
N1272      C1276   1.348       .  A
N1272     Cu1280   2.098       .  S
N1273      C1274   1.346       .  A
N1273     Cu1279   2.072       .  S
C1274      C1275   1.388       .  A
C1274      H1277   1.081       .  S
C1275      C1276   1.393       .  A
C1275      C1797   1.494       .  S
C1276      H1278   1.081       .  S
Cu1279     N1282   2.071       .  S
Cu1280     N1290   2.098       .  S
Cu1281     N1283   2.078       .  S
Cu1281     N1289   2.079       .  S
N1282      N1283   1.321       .  A
N1282      C1286   1.342       .  A
N1283      C1284   1.348       .  A
C1284      C1285   1.387       .  A
C1284      H1287   1.082       .  S
C1285      C1286   1.385       .  A
C1285      C1775   1.482       .  S
C1286      H1288   1.082       .  S
N1289      N1290   1.322       .  A
N1289      C1293   1.345       .  A
N1290      C1291   1.349       .  A
C1291      C1292   1.394       .  A
C1291      H1294   1.081       .  S
C1292      C1293   1.389       .  A
C1292      C1753   1.497       .  S
C1293      H1295   1.081       .  S
N1296      C1300   1.362       .  A
N1296      C1297   1.362       .  A
N1296      C1787   1.441       .  S
C1297      C1298   1.382       .  A
C1297      C2271   1.485       .  S
C1298      C1299   1.373       .  A
C1298      H1301   1.082       .  S
C1299      C1300   1.383       .  A
C1299      H1302   1.082       .  S
C1300      C3371   1.488       .  S
N1303      N1304   1.323       .  A
N1303      C1307   1.349       .  A
N1303     Cu1311   2.093       .  S
N1304      C1305   1.344       .  A
N1304     Cu1310   2.080       .  S
C1305      C1306   1.388       .  A
C1305      H1308   1.081       .  S
C1306      C1307   1.392       .  A
C1306      C1699   1.493       .  S
C1307      H1309   1.081       .  S
Cu1310     N1313   2.080       .  S
Cu1311     N1321   2.093       .  S
Cu1312     N1314   2.070       .  S
Cu1312     N1320   2.070       .  S
N1313      N1314   1.320       .  A
N1313      C1317   1.347       .  A
N1314      C1315   1.343       .  A
C1315      C1316   1.388       .  A
C1315      H1318   1.081       .  S
C1316      C1317   1.391       .  A
C1316      C1731   1.490       .  S
C1317      H1319   1.081       .  S
N1320      N1321   1.321       .  A
N1320      C1324   1.345       .  A
N1321      C1322   1.347       .  A
C1322      C1323   1.394       .  A
C1322      H1325   1.081       .  S
C1323      C1324   1.388       .  A
C1323      C1721   1.494       .  S
C1324      H1326   1.081       .  S
N1327      C1331   1.360       .  A
N1327      C1328   1.361       .  A
N1327      C1743   1.442       .  S
C1328      C1329   1.382       .  A
C1328      C1897   1.482       .  S
C1329      C1330   1.372       .  A
C1329      H1332   1.082       .  S
C1330      C1331   1.382       .  A
C1330      H1333   1.082       .  S
C1331      C3953   1.482       .  S
N1334      N1335   1.321       .  A
N1334      C1338   1.345       .  A
N1334     Cu1342   2.087       .  S
N1335      C1336   1.346       .  A
N1335     Cu1341   2.074       .  S
C1336      C1337   1.389       .  A
C1336      H1339   1.081       .  S
C1337      C1338   1.391       .  A
C1337      C2007   1.491       .  S
C1338      H1340   1.081       .  S
Cu1341     N1344   2.074       .  S
Cu1342     N1352   2.087       .  S
Cu1343     N1345   2.076       .  S
Cu1343     N1351   2.076       .  S
N1344      N1345   1.321       .  A
N1344      C1348   1.344       .  A
N1345      C1346   1.345       .  A
C1346      C1347   1.389       .  A
C1346      H1349   1.081       .  S
C1347      C1348   1.389       .  A
C1347      C1665   1.488       .  S
C1348      H1350   1.081       .  S
N1351      N1352   1.321       .  A
N1351      C1355   1.345       .  A
N1352      C1353   1.347       .  A
C1353      C1354   1.393       .  A
C1353      H1356   1.081       .  S
C1354      C1355   1.390       .  A
C1354      C4251   1.495       .  S
C1355      H1357   1.081       .  S
N1358      C1362   1.359       .  A
N1358      C1359   1.361       .  A
N1358      C1677   1.437       .  S
C1359      C1360   1.384       .  A
C1359      C1765   1.488       .  S
C1360      C1361   1.375       .  A
C1360      H1363   1.082       .  S
C1361      C1362   1.382       .  A
C1361      H1364   1.082       .  S
C1362      C1709   1.485       .  S
N1365      N1366   1.322       .  A
N1365      C1369   1.348       .  A
N1365     Cu1373   2.098       .  S
N1366      C1367   1.350       .  A
N1366     Cu1372   2.090       .  S
C1367      C1368   1.391       .  A
C1367      H1370   1.081       .  S
C1368      C1369   1.393       .  A
C1368      C4569   1.498       .  S
C1369      H1371   1.081       .  S
Cu1372     N1375   2.090       .  S
Cu1373     N1383   2.098       .  S
Cu1374     N1376   2.084       .  S
Cu1374     N1382   2.084       .  S
N1375      N1376   1.323       .  A
N1375      C1379   1.347       .  A
N1376      C1377   1.347       .  A
C1377      C1378   1.389       .  A
C1377      H1380   1.081       .  S
C1378      C1379   1.390       .  A
C1378      C1643   1.492       .  S
C1379      H1381   1.081       .  S
N1382      N1383   1.322       .  A
N1382      C1386   1.348       .  A
N1383      C1384   1.348       .  A
C1384      C1385   1.393       .  A
C1384      H1387   1.081       .  S
C1385      C1386   1.390       .  A
C1385      C1633   1.497       .  S
C1386      H1388   1.081       .  S
N1389      C1393   1.365       .  A
N1389      C1390   1.365       .  A
N1389      C1655   1.444       .  S
C1390      C1391   1.382       .  A
C1390      C1599   1.489       .  S
C1391      C1392   1.371       .  A
C1391      H1394   1.082       .  S
C1392      C1393   1.382       .  A
C1392      H1395   1.082       .  S
C1393      C2105   1.488       .  S
N1396      N1397   1.323       .  A
N1396      C1400   1.348       .  A
N1396     Cu1404   2.098       .  S
N1397      C1398   1.348       .  A
N1397     Cu1403   2.089       .  S
C1398      C1399   1.391       .  A
C1398      H1401   1.081       .  S
C1399      C1400   1.393       .  A
C1399      C2513   1.498       .  S
C1400      H1402   1.081       .  S
Cu1403     N1406   2.089       .  S
Cu1404     N1414   2.097       .  S
Cu1405     N1407   2.081       .  S
Cu1405     N1413   2.082       .  S
N1406      N1407   1.322       .  A
N1406      C1410   1.348       .  A
N1407      C1408   1.346       .  A
C1408      C1409   1.387       .  A
C1408      H1411   1.082       .  S
C1409      C1410   1.390       .  A
C1409      C1577   1.489       .  S
C1410      H1412   1.082       .  S
N1413      N1414   1.321       .  A
N1413      C1417   1.346       .  A
N1414      C1415   1.349       .  A
C1415      C1416   1.394   1_455  A
C1415      H1418   1.081   1_455  S
C1416      C1417   1.391   1_655  A
C1416      C1555   1.499       .  S
C1417      H1419   1.081       .  S
N1420      C1424   1.363       .  A
N1420      C1421   1.362       .  A
N1420      C1589   1.446       .  S
C1421      C1422   1.380       .  A
C1421      C1621   1.480       .  S
C1422      C1423   1.372       .  A
C1422      H1425   1.082       .  S
C1423      C1424   1.383       .  A
C1423      H1426   1.082       .  S
C1424      C1687   1.485       .  S
N1427      N1428   1.323       .  A
N1427      C1431   1.348       .  A
N1427     Cu1435   2.099       .  S
N1428      C1429   1.348       .  A
N1428     Cu1434   2.088       .  S
C1429      C1430   1.390       .  A
C1429      H1432   1.081       .  S
C1430      C1431   1.393       .  A
C1430      C1511   1.498       .  S
C1431      H1433   1.081       .  S
Cu1434     N1437   2.087       .  S
Cu1435     N1445   2.098       .  S
Cu1436     N1438   2.074       .  S
Cu1436     N1444   2.074       .  S
N1437      N1438   1.321       .  A
N1437      C1441   1.347       .  A
N1438      C1439   1.345       .  A
C1439      C1440   1.388       .  A
C1439      H1442   1.081       .  S
C1440      C1441   1.390       .  A
C1440      C1533   1.490       .  S
C1441      H1443   1.081       .  S
N1444      N1445   1.321       .  A
N1444      C1448   1.346       .  A
N1445      C1446   1.348       .  A
C1446      C1447   1.394       .  A
C1446      H1449   1.081       .  S
C1447      C1448   1.389       .  A
C1447      C2887   1.496       .  S
C1448      H1450   1.081       .  S
N1451      C1455   1.362       .  A
N1451      C1452   1.360       .  A
N1451      C1545   1.440       .  S
C1452      C1453   1.380       .  A
C1452      C2249   1.481       .  S
C1453      C1454   1.375       .  A
C1453      H1456   1.082       .  S
C1454      C1455   1.384       .  A
C1454      H1457   1.082       .  S
C1455      C1567   1.490       .  S
N1458      N1459   1.323   1_455  A
N1458      C1462   1.349       .  A
N1458     Cu1466   2.105   1_455  S
N1459      C1460   1.349   1_655  A
N1459     Cu1465   2.093       .  S
C1460      C1461   1.391       .  A
C1460      H1463   1.081       .  S
C1461      C1462   1.394       .  A
C1461      C1611   1.501       .  S
C1462      H1464   1.081       .  S
Cu1465     N1468   2.092       .  S
Cu1466     N1476   2.104       .  S
Cu1467     N1469   2.085       .  S
Cu1467     N1475   2.085       .  S
N1468      N1469   1.322       .  A
N1468      C1472   1.350       .  A
N1469      C1470   1.345       .  A
C1470      C1471   1.390       .  A
C1470      H1473   1.081       .  S
C1471      C1472   1.392       .  A
C1471      C1489   1.495       .  S
C1472      H1474   1.081       .  S
N1475      N1476   1.322       .  A
N1475      C1479   1.347       .  A
N1476      C1477   1.350       .  A
C1477      C1478   1.395       .  A
C1477      H1480   1.081       .  S
C1478      C1479   1.391       .  A
C1478      C3613   1.501       .  S
C1479      H1481   1.081       .  S
N1482      C1486   1.366       .  A
N1482      C1483   1.366       .  A
N1482      C1501   1.444       .  S
C1483      C1484   1.382       .  A
C1483      C1523   1.489       .  S
C1484      C1485   1.370       .  A
C1484      H1487   1.082       .  S
C1485      C1486   1.382       .  A
C1485      H1488   1.082       .  S
C1486      C3305   1.490       .  S
C1489      C1490   1.403       .  A
C1489      C1494   1.406       .  A
C1490      C1491   1.398       .  A
C1490      H1503   1.081       .  S
C1491      C1492   1.414       .  A
C1491      H1504   1.077       .  S
C1492      C1498   1.434       .  A
C1492      C1493   1.423       .  A
C1493      C1495   1.401       .  A
C1493      C1494   1.412       .  A
C1494      H1505   1.083       .  S
C1495      C1496   1.393       .  A
C1495      H1506   1.084       .  S
C1496      C1497   1.400       .  A
C1496      H1507   1.084       .  S
C1497      C1498   1.423       .  A
C1497      C1502   1.409       .  A
C1498      C1499   1.416       .  A
C1499      C1500   1.398       .  A
C1499      H1508   1.077       .  S
C1500      C1501   1.399       .  A
C1500      H1509   1.082       .  S
C1501      C1502   1.403       .  A
C1502      H1510   1.084       .  S
C1511      C1512   1.406       .  A
C1511      C1516   1.403       .  A
C1512      C1513   1.405       .  A
C1512      H1525   1.082       .  S
C1513      C1514   1.416       .  A
C1513      H1526   1.078       .  S
C1514      C1520   1.439       .  A
C1514      C1515   1.424       .  A
C1515      C1517   1.399       .  A
C1515      C1516   1.408       .  A
C1516      H1527   1.083       .  S
C1517      C1518   1.389       .  A
C1517      H1528   1.084       .  S
C1518      C1519   1.399       .  A
C1518      H1529   1.084       .  S
C1519      C1520   1.422       .  A
C1519      C1524   1.405       .  A
C1520      C1521   1.420       .  A
C1521      C1522   1.408       .  A
C1521      H1530   1.078       .  S
C1522      C1523   1.401       .  A
C1522      H1531   1.083       .  S
C1523      C1524   1.401       .  A
C1524      H1532   1.085       .  S
C1533      C1534   1.403       .  A
C1533      C1538   1.403       .  A
C1534      C1535   1.398       .  A
C1534      H1547   1.082       .  S
C1535      C1536   1.414       .  A
C1535      H1548   1.077       .  S
C1536      C1542   1.432       .  A
C1536      C1537   1.422       .  A
C1537      C1539   1.400       .  A
C1537      C1538   1.407       .  A
C1538      H1549   1.083       .  S
C1539      C1540   1.390       .  A
C1539      H1550   1.084       .  S
C1540      C1541   1.399       .  A
C1540      H1551   1.084       .  S
C1541      C1542   1.423       .  A
C1541      C1546   1.405       .  A
C1542      C1543   1.416       .  A
C1543      C1544   1.398       .  A
C1543      H1552   1.076       .  S
C1544      C1545   1.398       .  A
C1544      H1553   1.083       .  S
C1545      C1546   1.400       .  A
C1546      H1554   1.084       .  S
C1555      C1556   1.406       .  A
C1555      C1560   1.405       .  A
C1556      C1557   1.401       .  A
C1556      H1569   1.081       .  S
C1557      C1558   1.414       .  A
C1557      H1570   1.078       .  S
C1558      C1564   1.436       .  A
C1558      C1559   1.423       .  A
C1559      C1561   1.400       .  A
C1559      C1560   1.409       .  A
C1560      H1571   1.082       .  S
C1561      C1562   1.390       .  A
C1561      H1572   1.084       .  S
C1562      C1563   1.400       .  A
C1562      H1573   1.084       .  S
C1563      C1564   1.422       .  A
C1563      C1568   1.406       .  A
C1564      C1565   1.418       .  A
C1565      C1566   1.403       .  A
C1565      H1574   1.078       .  S
C1566      C1567   1.400       .  A
C1566      H1575   1.083       .  S
C1567      C1568   1.402       .  A
C1568      H1576   1.085       .  S
C1577      C1578   1.402       .  A
C1577      C1582   1.403       .  A
C1578      C1579   1.400       .  A
C1578      H1591   1.082       .  S
C1579      C1580   1.415       .  A
C1579      H1592   1.077       .  S
C1580      C1586   1.434       .  A
C1580      C1581   1.423       .  A
C1581      C1583   1.400       .  A
C1581      C1582   1.408       .  A
C1582      H1593   1.083       .  S
C1583      C1584   1.390       .  A
C1583      H1594   1.084       .  S
C1584      C1585   1.399       .  A
C1584      H1595   1.084       .  S
C1585      C1586   1.422       .  A
C1585      C1590   1.406       .  A
C1586      C1587   1.416       .  A
C1587      C1588   1.399       .  A
C1587      H1596   1.077       .  S
C1588      C1589   1.401       .  A
C1588      H1597   1.082       .  S
C1589      C1590   1.401       .  A
C1590      H1598   1.083       .  S
C1599      C1600   1.401       .  A
C1599      C1604   1.402       .  A
C1600      C1601   1.397       .  A
C1600      H1613   1.084       .  S
C1601      C1602   1.414       .  A
C1601      H1614   1.077       .  S
C1602      C1608   1.437       .  A
C1602      C1603   1.425       .  A
C1603      C1605   1.400       .  A
C1603      C1604   1.415       .  A
C1604      H1615   1.084       .  S
C1605      C1606   1.394       .  A
C1605      H1616   1.084       .  S
C1606      C1607   1.402       .  A
C1606      H1617   1.084       .  S
C1607      C1608   1.421       .  A
C1607      C1612   1.413       .  A
C1608      C1609   1.416       .  A
C1609      C1610   1.401       .  A
C1609      H1618   1.077       .  S
C1610      C1611   1.404       .  A
C1610      H1619   1.081       .  S
C1611      C1612   1.409       .  A
C1612      H1620   1.082       .  S
C1621      C1622   1.398       .  A
C1621      C1626   1.399       .  A
C1622      C1623   1.398       .  A
C1622      H1635   1.084       .  S
C1623      C1624   1.416       .  A
C1623      H1636   1.077       .  S
C1624      C1630   1.435       .  A
C1624      C1625   1.424       .  A
C1625      C1627   1.400       .  A
C1625      C1626   1.410       .  A
C1626      H1637   1.084       .  S
C1627      C1628   1.392       .  A
C1627      H1638   1.084       .  S
C1628      C1629   1.401       .  A
C1628      H1639   1.084       .  S
C1629      C1630   1.422       .  A
C1629      C1634   1.410       .  A
C1630      C1631   1.415       .  A
C1631      C1632   1.399       .  A
C1631      H1640   1.077       .  S
C1632      C1633   1.403       .  A
C1632      H1641   1.082       .  S
C1633      C1634   1.407       .  A
C1634      H1642   1.082       .  S
C1643      C1644   1.402       .  A
C1643      C1648   1.405       .  A
C1644      C1645   1.399       .  A
C1644      H1657   1.082       .  S
C1645      C1646   1.415       .  A
C1645      H1658   1.077       .  S
C1646      C1652   1.433       .  A
C1646      C1647   1.422       .  A
C1647      C1649   1.401       .  A
C1647      C1648   1.409       .  A
C1648      H1659   1.083       .  S
C1649      C1650   1.392       .  A
C1649      H1660   1.084       .  S
C1650      C1651   1.400       .  A
C1650      H1661   1.084       .  S
C1651      C1652   1.423       .  A
C1651      C1656   1.408       .  A
C1652      C1653   1.415       .  A
C1653      C1654   1.398       .  A
C1653      H1662   1.077       .  S
C1654      C1655   1.400       .  A
C1654      H1663   1.083       .  S
C1655      C1656   1.401       .  A
C1656      H1664   1.084       .  S
C1665      C1666   1.402       .  A
C1665      C1670   1.404       .  A
C1666      C1667   1.396       .  A
C1666      H1679   1.081       .  S
C1667      C1668   1.414       .  A
C1667      H1680   1.077       .  S
C1668      C1674   1.430       .  A
C1668      C1669   1.421       .  A
C1669      C1671   1.400       .  A
C1669      C1670   1.406       .  A
C1670      H1681   1.082       .  S
C1671      C1672   1.390       .  A
C1671      H1682   1.084       .  S
C1672      C1673   1.399       .  A
C1672      H1683   1.084       .  S
C1673      C1674   1.423       .  A
C1673      C1678   1.405       .  A
C1674      C1675   1.416       .  A
C1675      C1676   1.395       .  A
C1675      H1684   1.076       .  S
C1676      C1677   1.397       .  A
C1676      H1685   1.083       .  S
C1677      C1678   1.398       .  A
C1678      H1686   1.084       .  S
C1687      C1688   1.398       .  A
C1687      C1692   1.402       .  A
C1688      C1689   1.401       .  A
C1688      H1701   1.083       .  S
C1689      C1690   1.418       .  A
C1689      H1702   1.077       .  S
C1690      C1696   1.434       .  A
C1690      C1691   1.421       .  A
C1691      C1693   1.400       .  A
C1691      C1692   1.405       .  A
C1692      H1703   1.085       .  S
C1693      C1694   1.390       .  A
C1693      H1704   1.084       .  S
C1694      C1695   1.400       .  A
C1694      H1705   1.084       .  S
C1695      C1696   1.423       .  A
C1695      C1700   1.409       .  A
C1696      C1697   1.413       .  A
C1697      C1698   1.398       .  A
C1697      H1706   1.077       .  S
C1698      C1699   1.404       .  A
C1698      H1707   1.081       .  S
C1699      C1700   1.404       .  A
C1700      H1708   1.083       .  S
C1709      C1710   1.400       .  A
C1709      C1714   1.399       .  A
C1710      C1711   1.403       .  A
C1710      H1723   1.083       .  S
C1711      C1712   1.418       .  A
C1711      H1724   1.078       .  S
C1712      C1718   1.435       .  A
C1712      C1713   1.422       .  A
C1713      C1715   1.398       .  A
C1713      C1714   1.403       .  A
C1714      H1725   1.085       .  S
C1715      C1716   1.388       .  A
C1715      H1726   1.084       .  S
C1716      C1717   1.398       .  A
C1716      H1727   1.084       .  S
C1717      C1718   1.423       .  A
C1717      C1722   1.405       .  A
C1718      C1719   1.414       .  A
C1719      C1720   1.401       .  A
C1719      H1728   1.078       .  S
C1720      C1721   1.406       .  A
C1720      H1729   1.081       .  S
C1721      C1722   1.402       .  A
C1722      H1730   1.082       .  S
C1731      C1732   1.403       .  A
C1731      C1736   1.404       .  A
C1732      C1733   1.396       .  A
C1732      H1745   1.081       .  S
C1733      C1734   1.413       .  A
C1733      H1746   1.078       .  S
C1734      C1740   1.431       .  A
C1734      C1735   1.422       .  A
C1735      C1737   1.400       .  A
C1735      C1736   1.407       .  A
C1736      H1747   1.083       .  S
C1737      C1738   1.390       .  A
C1737      H1748   1.084       .  S
C1738      C1739   1.399       .  A
C1738      H1749   1.084       .  S
C1739      C1740   1.422       .  A
C1739      C1744   1.405       .  A
C1740      C1741   1.416       .  A
C1741      C1742   1.397       .  A
C1741      H1750   1.078       .  S
C1742      C1743   1.398       .  A
C1742      H1751   1.083       .  S
C1743      C1744   1.401       .  A
C1744      H1752   1.084       .  S
C1753      C1754   1.405       .  A
C1753      C1758   1.405       .  A
C1754      C1755   1.400       .  A
C1754      H1767   1.081       .  S
C1755      C1756   1.413       .  A
C1755      H1768   1.077       .  S
C1756      C1762   1.435       .  A
C1756      C1757   1.423       .  A
C1757      C1759   1.400       .  A
C1757      C1758   1.409       .  A
C1758      H1769   1.082       .  S
C1759      C1760   1.390       .  A
C1759      H1770   1.084       .  S
C1760      C1761   1.400       .  A
C1760      H1771   1.084       .  S
C1761      C1762   1.422       .  A
C1761      C1766   1.405       .  A
C1762      C1763   1.418       .  A
C1763      C1764   1.402       .  A
C1763      H1772   1.078       .  S
C1764      C1765   1.400       .  A
C1764      H1773   1.083       .  S
C1765      C1766   1.402       .  A
C1766      H1774   1.085       .  S
C1775      C1776   1.400       .  A
C1775      C1780   1.403       .  A
C1776      C1777   1.392       .  A
C1776      H1789   1.082       .  S
C1777      C1778   1.413       .  A
C1777      H1790   1.076       .  S
C1778      C1784   1.429       .  A
C1778      C1779   1.423       .  A
C1779      C1781   1.400       .  A
C1779      C1780   1.408       .  A
C1780      H1791   1.084       .  S
C1781      C1782   1.392       .  A
C1781      H1792   1.084       .  S
C1782      C1783   1.400       .  A
C1782      H1793   1.084       .  S
C1783      C1784   1.422       .  A
C1783      C1788   1.405       .  A
C1784      C1785   1.416       .  A
C1785      C1786   1.394       .  A
C1785      H1794   1.076       .  S
C1786      C1787   1.397       .  A
C1786      H1795   1.082       .  S
C1787      C1788   1.402       .  A
C1788      H1796   1.084       .  S
C1797      C1798   1.405       .  A
C1797      C1802   1.402       .  A
C1798      C1799   1.402       .  A
C1798      H1811   1.082       .  S
C1799      C1800   1.415       .  A
C1799      H1812   1.078       .  S
C1800      C1806   1.436       .  A
C1800      C1801   1.423       .  A
C1801      C1803   1.398       .  A
C1801      C1802   1.406       .  A
C1802      H1813   1.082       .  S
C1803      C1804   1.388       .  A
C1803      H1814   1.084       .  S
C1804      C1805   1.399       .  A
C1804      H1815   1.084       .  S
C1805      C1806   1.422       .  A
C1805      C1810   1.403       .  A
C1806      C1807   1.419       .  A
C1807      C1808   1.405       .  A
C1807      H1816   1.078       .  S
C1808      C1809   1.401       .  A
C1808      H1817   1.083       .  S
C1809      C1810   1.401       .  A
C1810      H1818   1.085       .  S
C1819      C1820   1.401       .  A
C1819      C1824   1.404       .  A
C1820      C1821   1.398       .  A
C1820      H1833   1.082       .  S
C1821      C1822   1.415       .  A
C1821      H1834   1.076       .  S
C1822      C1828   1.432       .  A
C1822      C1823   1.422       .  A
C1823      C1825   1.400       .  A
C1823      C1824   1.406       .  A
C1824      H1835   1.083       .  S
C1825      C1826   1.390       .  A
C1825      H1836   1.084       .  S
C1826      C1827   1.399       .  A
C1826      H1837   1.084       .  S
C1827      C1828   1.423       .  A
C1827      C1832   1.405       .  A
C1828      C1829   1.416       .  A
C1829      C1830   1.397       .  A
C1829      H1838   1.076       .  S
C1830      C1831   1.399       .  A
C1830      H1839   1.083       .  S
C1831      C1832   1.400       .  A
C1832      H1840   1.084       .  S
C1841      C1842   1.401       .  A
C1841      C1846   1.401       .  A
C1842      C1843   1.406       .  A
C1842      H1855   1.083       .  S
C1843      C1844   1.420       .  A
C1843      H1856   1.078       .  S
C1844      C1850   1.437       .  A
C1844      C1845   1.421       .  A
C1845      C1847   1.399       .  A
C1845      C1846   1.404       .  A
C1846      H1857   1.085       .  S
C1847      C1848   1.388       .  A
C1847      H1858   1.084       .  S
C1848      C1849   1.398       .  A
C1848      H1859   1.084       .  S
C1849      C1850   1.424       .  A
C1849      C1854   1.408       .  A
C1850      C1851   1.414       .  A
C1851      C1852   1.402       .  A
C1851      H1860   1.078       .  S
C1852      C1853   1.406       .  A
C1852      H1861   1.082       .  S
C1853      C1854   1.402       .  A
C1854      H1862   1.083       .  S
C1863      C1864   1.400       .  A
C1863      C1868   1.401       .  A
C1864      C1865   1.398       .  A
C1864      H1877   1.082       .  S
C1865      C1866   1.415       .  A
C1865      H1878   1.077       .  S
C1866      C1872   1.432       .  A
C1866      C1867   1.423       .  A
C1867      C1869   1.399       .  A
C1867      C1868   1.405       .  A
C1868      H1879   1.083       .  S
C1869      C1870   1.389       .  A
C1869      H1880   1.084       .  S
C1870      C1871   1.399       .  A
C1870      H1881   1.084       .  S
C1871      C1872   1.422       .  A
C1871      C1876   1.405       .  A
C1872      C1873   1.415       .  A
C1873      C1874   1.398       .  A
C1873      H1882   1.077       .  S
C1874      C1875   1.402       .  A
C1874      H1883   1.082       .  S
C1875      C1876   1.402       .  A
C1876      H1884   1.083       .  S
C1885      C1886   1.403       .  A
C1885      C1890   1.407       .  A
C1886      C1887   1.398       .  A
C1886      H1899   1.081       .  S
C1887      C1888   1.414       .  A
C1887      H1900   1.078       .  S
C1888      C1894   1.433       .  A
C1888      C1889   1.421       .  A
C1889      C1891   1.401       .  A
C1889      C1890   1.410       .  A
C1890      H1901   1.082       .  S
C1891      C1892   1.392       .  A
C1891      H1902   1.084       .  S
C1892      C1893   1.400       .  A
C1892      H1903   1.084       .  S
C1893      C1894   1.424       .  A
C1893      C1898   1.410       .  A
C1894      C1895   1.414       .  A
C1895      C1896   1.396       .  A
C1895      H1904   1.078       .  S
C1896      C1897   1.399       .  A
C1896      H1905   1.084       .  S
C1897      C1898   1.400       .  A
C1898      H1906   1.085       .  S
C1907      C1908   1.404       .  A
C1907      C1912   1.405       .  A
C1908      C1909   1.401       .  A
C1908      H1921   1.081       .  S
C1909      C1910   1.415       .  A
C1909      H1922   1.077       .  S
C1910      C1916   1.435       .  A
C1910      C1911   1.422       .  A
C1911      C1913   1.400       .  A
C1911      C1912   1.407       .  A
C1912      H1923   1.082       .  S
C1913      C1914   1.390       .  A
C1913      H1924   1.084       .  S
C1914      C1915   1.399       .  A
C1914      H1925   1.084       .  S
C1915      C1916   1.423       .  A
C1915      C1920   1.406       .  A
C1916      C1917   1.417       .  A
C1917      C1918   1.400       .  A
C1917      H1926   1.077       .  S
C1918      C1919   1.399       .  A
C1918      H1927   1.083       .  S
C1919      C1920   1.399       .  A
C1920      H1928   1.084       .  S
C1929      C1930   1.404       .  A
C1929      C1934   1.403       .  A
C1930      C1931   1.400       .  A
C1930      H1943   1.082       .  S
C1931      C1932   1.415       .  A
C1931      H1944   1.078       .  S
C1932      C1938   1.435       .  A
C1932      C1933   1.423       .  A
C1933      C1935   1.400       .  A
C1933      C1934   1.408       .  A
C1934      H1945   1.083       .  S
C1935      C1936   1.390       .  A
C1935      H1946   1.084       .  S
C1936      C1937   1.399       .  A
C1936      H1947   1.084       .  S
C1937      C1938   1.423       .  A
C1937      C1942   1.406       .  A
C1938      C1939   1.416       .  A
C1939      C1940   1.400       .  A
C1939      H1948   1.078       .  S
C1940      C1941   1.401       .  A
C1940      H1949   1.083       .  S
C1941      C1942   1.400       .  A
C1942      H1950   1.084       .  S
C1951      C1952   1.400       .  A
C1951      C1956   1.401       .  A
C1952      C1953   1.395       .  A
C1952      H1965   1.084       .  S
C1953      C1954   1.413       .  A
C1953      H1966   1.078       .  S
C1954      C1960   1.433       .  A
C1954      C1955   1.425       .  A
C1955      C1957   1.400       .  A
C1955      C1956   1.412       .  A
C1956      H1967   1.085       .  S
C1957      C1958   1.393       .  A
C1957      H1968   1.084       .  S
C1958      C1959   1.401       .  A
C1958      H1969   1.084       .  S
C1959      C1960   1.421       .  A
C1959      C1964   1.410       .  A
C1960      C1961   1.415       .  A
C1961      C1962   1.398       .  A
C1961      H1970   1.078       .  S
C1962      C1963   1.402       .  A
C1962      H1971   1.081       .  S
C1963      C1964   1.407       .  A
C1964      H1972   1.082       .  S
C1973      C1974   1.402       .  A
C1973      C1978   1.404       .  A
C1974      C1975   1.398       .  A
C1974      H1987   1.082       .  S
C1975      C1976   1.415       .  A
C1975      H1988   1.076       .  S
C1976      C1982   1.431       .  A
C1976      C1977   1.421       .  A
C1977      C1979   1.400       .  A
C1977      C1978   1.406       .  A
C1978      H1989   1.083       .  S
C1979      C1980   1.390       .  A
C1979      H1990   1.084       .  S
C1980      C1981   1.399       .  A
C1980      H1991   1.084       .  S
C1981      C1982   1.424       .  A
C1981      C1986   1.407       .  A
C1982      C1983   1.414       .  A
C1983      C1984   1.395       .  A
C1983      H1992   1.076       .  S
C1984      C1985   1.399       .  A
C1984      H1993   1.083       .  S
C1985      C1986   1.399       .  A
C1986      H1994   1.084       .  S
C1995      C1996   1.401       .  A
C1995      C2000   1.400       .  A
C1996      C1997   1.404       .  A
C1996      H2009   1.082       .  S
C1997      C1998   1.418       .  A
C1997      H2010   1.078       .  S
C1998      C2004   1.434       .  A
C1998      C1999   1.422       .  A
C1999      C2001   1.398       .  A
C1999      C2000   1.401       .  A
C2000      H2011   1.085       .  S
C2001      C2002   1.386       .  A
C2001      H2012   1.084       .  S
C2002      C2003   1.398       .  A
C2002      H2013   1.084       .  S
C2003      C2004   1.423       .  A
C2003      C2008   1.403       .  A
C2004      C2005   1.415       .  A
C2005      C2006   1.402       .  A
C2005      H2014   1.078       .  S
C2006      C2007   1.405       .  A
C2006      H2015   1.082       .  S
C2007      C2008   1.402       .  A
C2008      H2016   1.082       .  S
C2017      C2018   1.400       .  A
C2017      C2022   1.402       .  A
C2018      C2019   1.395       .  A
C2018      H2031   1.084       .  S
C2019      C2020   1.413       .  A
C2019      H2032   1.078       .  S
C2020      C2026   1.434       .  A
C2020      C2021   1.424       .  A
C2021      C2023   1.400       .  A
C2021      C2022   1.414       .  A
C2022      H2033   1.084       .  S
C2023      C2024   1.394       .  A
C2023      H2034   1.084       .  S
C2024      C2025   1.402       .  A
C2024      H2035   1.084       .  S
C2025      C2026   1.421       .  A
C2025      C2030   1.412       .  A
C2026      C2027   1.414       .  A
C2027      C2028   1.397       .  A
C2027      H2036   1.078       .  S
C2028      C2029   1.403       .  A
C2028      H2037   1.081       .  S
C2029      C2030   1.408       .  A
C2030      H2038   1.083       .  S
C2039      C2040   1.405       .  A
C2039      C2044   1.404       .  A
C2040      C2041   1.400       .  A
C2040      H2053   1.081       .  S
C2041      C2042   1.413       .  A
C2041      H2054   1.078       .  S
C2042      C2048   1.436       .  A
C2042      C2043   1.423       .  A
C2043      C2045   1.399       .  A
C2043      C2044   1.409       .  A
C2044      H2055   1.082       .  S
C2045      C2046   1.390       .  A
C2045      H2056   1.084       .  S
C2046      C2047   1.400       .  A
C2046      H2057   1.084       .  S
C2047      C2048   1.421       .  A
C2047      C2052   1.404       .  A
C2048      C2049   1.419       .  A
C2049      C2050   1.404       .  A
C2049      H2058   1.078       .  S
C2050      C2051   1.401       .  A
C2050      H2059   1.082       .  S
C2051      C2052   1.403       .  A
C2052      H2060   1.085       .  S
C2061      C2062   1.403       .  A
C2061      C2066   1.405       .  A
C2062      C2063   1.397       .  A
C2062      H2075   1.081       .  S
C2063      C2064   1.414       .  A
C2063      H2076   1.078       .  S
C2064      C2070   1.432       .  A
C2064      C2065   1.422       .  A
C2065      C2067   1.400       .  A
C2065      C2066   1.407       .  A
C2066      H2077   1.083       .  S
C2067      C2068   1.391       .  A
C2067      H2078   1.084       .  S
C2068      C2069   1.399       .  A
C2068      H2079   1.084       .  S
C2069      C2070   1.424       .  A
C2069      C2074   1.407       .  A
C2070      C2071   1.415       .  A
C2071      C2072   1.395       .  A
C2071      H2080   1.078       .  S
C2072      C2073   1.398       .  A
C2072      H2081   1.083       .  S
C2073      C2074   1.399       .  A
C2074      H2082   1.084       .  S
C2083      C2084   1.399       .  A
C2083      C2088   1.400       .  A
C2084      C2085   1.403       .  A
C2084      H2097   1.083       .  S
C2085      C2086   1.419       .  A
C2085      H2098   1.078       .  S
C2086      C2092   1.435       .  A
C2086      C2087   1.422       .  A
C2087      C2089   1.399       .  A
C2087      C2088   1.404       .  A
C2088      H2099   1.085       .  S
C2089      C2090   1.389       .  A
C2089      H2100   1.084       .  S
C2090      C2091   1.399       .  A
C2090      H2101   1.084       .  S
C2091      C2092   1.423       .  A
C2091      C2096   1.407       .  A
C2092      C2093   1.414       .  A
C2093      C2094   1.401       .  A
C2093      H2102   1.078       .  S
C2094      C2095   1.405       .  A
C2094      H2103   1.081       .  S
C2095      C2096   1.403       .  A
C2096      H2104   1.083       .  S
C2105      C2106   1.400       .  A
C2105      C2110   1.402       .  A
C2106      C2107   1.404       .  A
C2106      H2119   1.083       .  S
C2107      C2108   1.419       .  A
C2107      H2120   1.078       .  S
C2108      C2114   1.436       .  A
C2108      C2109   1.422       .  A
C2109      C2111   1.400       .  A
C2109      C2110   1.406       .  A
C2110      H2121   1.085       .  S
C2111      C2112   1.390       .  A
C2111      H2122   1.084       .  S
C2112      C2113   1.399       .  A
C2112      H2123   1.084       .  S
C2113      C2114   1.423       .  A
C2113      C2118   1.409       .  A
C2114      C2115   1.413       .  A
C2115      C2116   1.400       .  A
C2115      H2124   1.078       .  S
C2116      C2117   1.406       .  A
C2116      H2125   1.081       .  S
C2117      C2118   1.404       .  A
C2118      H2126   1.083       .  S
C2127      C2128   1.400       .  A
C2127      C2132   1.402       .  A
C2128      C2129   1.397       .  A
C2128      H2141   1.083       .  S
C2129      C2130   1.416       .  A
C2129      H2142   1.077       .  S
C2130      C2136   1.434       .  A
C2130      C2131   1.423       .  A
C2131      C2133   1.400       .  A
C2131      C2132   1.409       .  A
C2132      H2143   1.083       .  S
C2133      C2134   1.392       .  A
C2133      H2144   1.084       .  S
C2134      C2135   1.400       .  A
C2134      H2145   1.084       .  S
C2135      C2136   1.423       .  A
C2135      C2140   1.411       .  A
C2136      C2137   1.414       .  A
C2137      C2138   1.397       .  A
C2137      H2146   1.077       .  S
C2138      C2139   1.403       .  A
C2138      H2147   1.082       .  S
C2139      C2140   1.405       .  A
C2140      H2148   1.083       .  S
C2149      C2150   1.403       .  A
C2149      C2154   1.407       .  A
C2150      C2151   1.399       .  A
C2150      H2163   1.081       .  S
C2151      C2152   1.415       .  A
C2151      H2164   1.076       .  S
C2152      C2158   1.433       .  A
C2152      C2153   1.420       .  A
C2153      C2155   1.401       .  A
C2153      C2154   1.409       .  A
C2154      H2165   1.082       .  S
C2155      C2156   1.393       .  A
C2155      H2166   1.084       .  S
C2156      C2157   1.400       .  A
C2156      H2167   1.084       .  S
C2157      C2158   1.425       .  A
C2157      C2162   1.412       .  A
C2158      C2159   1.413       .  A
C2159      C2160   1.395       .  A
C2159      H2168   1.076       .  S
C2160      C2161   1.400       .  A
C2160      H2169   1.084       .  S
C2161      C2162   1.401       .  A
C2162      H2170   1.084       .  S
C2171      C2172   1.397       .  A
C2171      C2176   1.399       .  A
C2172      C2173   1.398       .  A
C2172      H2185   1.083       .  S
C2173      C2174   1.417       .  A
C2173      H2186   1.078       .  S
C2174      C2180   1.432       .  A
C2174      C2175   1.423       .  A
C2175      C2177   1.399       .  A
C2175      C2176   1.404       .  A
C2176      H2187   1.084       .  S
C2177      C2178   1.390       .  A
C2177      H2188   1.084       .  S
C2178      C2179   1.400       .  A
C2178      H2189   1.084       .  S
C2179      C2180   1.422       .  A
C2179      C2184   1.407       .  A
C2180      C2181   1.413       .  A
C2181      C2182   1.397       .  A
C2181      H2190   1.078       .  S
C2182      C2183   1.403       .  A
C2182      H2191   1.081       .  S
C2183      C2184   1.405       .  A
C2184      H2192   1.082       .  S
C2193      C2194   1.401       .  A
C2193      C2198   1.404       .  A
C2194      C2195   1.404       .  A
C2194      H2207   1.082       .  S
C2195      C2196   1.419       .  A
C2195      H2208   1.078       .  S
C2196      C2202   1.436       .  A
C2196      C2197   1.421       .  A
C2197      C2199   1.400       .  A
C2197      C2198   1.405       .  A
C2198      H2209   1.085       .  S
C2199      C2200   1.390       .  A
C2199      H2210   1.084       .  S
C2200      C2201   1.400       .  A
C2200      H2211   1.084       .  S
C2201      C2202   1.423       .  A
C2201      C2206   1.410       .  A
C2202      C2203   1.414       .  A
C2203      C2204   1.401       .  A
C2203      H2212   1.078       .  S
C2204      C2205   1.405       .  A
C2204      H2213   1.081       .  S
C2205      C2206   1.405       .  A
C2206      H2214   1.082       .  S
C2215      C2216   1.398       .  A
C2215      C2220   1.401       .  A
C2216      C2217   1.399       .  A
C2216      H2229   1.083       .  S
C2217      C2218   1.417       .  A
C2217      H2230   1.076       .  S
C2218      C2224   1.433       .  A
C2218      C2219   1.422       .  A
C2219      C2221   1.400       .  A
C2219      C2220   1.406       .  A
C2220      H2231   1.084       .  S
C2221      C2222   1.391       .  A
C2221      H2232   1.084       .  S
C2222      C2223   1.400       .  A
C2222      H2233   1.084       .  S
C2223      C2224   1.423       .  A
C2223      C2228   1.409       .  A
C2224      C2225   1.413       .  A
C2225      C2226   1.397       .  A
C2225      H2234   1.077       .  S
C2226      C2227   1.403       .  A
C2226      H2235   1.081       .  S
C2227      C2228   1.405       .  A
C2228      H2236   1.083       .  S
C2237      C2238   1.402       .  A
C2237      C2242   1.405       .  A
C2238      C2239   1.401       .  A
C2238      H2251   1.083       .  S
C2239      C2240   1.416       .  A
C2239      H2252   1.077       .  S
C2240      C2246   1.435       .  A
C2240      C2241   1.422       .  A
C2241      C2243   1.401       .  A
C2241      C2242   1.409       .  A
C2242      H2253   1.083       .  S
C2243      C2244   1.392       .  A
C2243      H2254   1.084       .  S
C2244      C2245   1.400       .  A
C2244      H2255   1.084       .  S
C2245      C2246   1.424       .  A
C2245      C2250   1.410       .  A
C2246      C2247   1.416       .  A
C2247      C2248   1.400       .  A
C2247      H2256   1.077       .  S
C2248      C2249   1.398       .  A
C2248      H2257   1.084       .  S
C2249      C2250   1.400       .  A
C2250      H2258   1.085       .  S
C2259      C2260   1.403       .  A
C2259      C2264   1.408       .  A
C2260      C2261   1.398       .  A
C2260      H2273   1.081       .  S
C2261      C2262   1.415       .  A
C2261      H2274   1.078       .  S
C2262      C2268   1.433       .  A
C2262      C2263   1.421       .  A
C2263      C2265   1.402       .  A
C2263      C2264   1.410       .  A
C2264      H2275   1.082       .  S
C2265      C2266   1.394       .  A
C2265      H2276   1.084       .  S
C2266      C2267   1.400       .  A
C2266      H2277   1.084       .  S
C2267      C2268   1.425       .  A
C2267      C2272   1.413       .  A
C2268      C2269   1.413       .  A
C2269      C2270   1.395       .  A
C2269      H2278   1.078       .  S
C2270      C2271   1.399       .  A
C2270      H2279   1.084       .  S
C2271      C2272   1.402       .  A
C2272      H2280   1.085       .  S
C2281      C2282   1.402       .  A
C2281      C2286   1.402       .  A
C2282      C2283   1.398       .  A
C2282      H2295   1.082       .  S
C2283      C2284   1.415       .  A
C2283      H2296   1.077       .  S
C2284      C2290   1.432       .  A
C2284      C2285   1.422       .  A
C2285      C2287   1.400       .  A
C2285      C2286   1.406       .  A
C2286      H2297   1.083       .  S
C2287      C2288   1.390       .  A
C2287      H2298   1.084       .  S
C2288      C2289   1.399       .  A
C2288      H2299   1.084       .  S
C2289      C2290   1.423       .  A
C2289      C2294   1.406       .  A
C2290      C2291   1.415       .  A
C2291      C2292   1.397       .  A
C2291      H2300   1.077       .  S
C2292      C2293   1.400       .  A
C2292      H2301   1.082       .  S
C2293      C2294   1.400       .  A
C2294      H2302   1.084       .  S
C2303      C2304   1.401       .  A
C2303      C2308   1.402       .  A
C2304      C2305   1.405       .  A
C2304      H2317   1.083       .  S
C2305      C2306   1.419       .  A
C2305      H2318   1.078       .  S
C2306      C2312   1.436       .  A
C2306      C2307   1.421       .  A
C2307      C2309   1.399       .  A
C2307      C2308   1.404       .  A
C2308      H2319   1.085       .  S
C2309      C2310   1.389       .  A
C2309      H2320   1.084       .  S
C2310      C2311   1.399       .  A
C2310      H2321   1.084       .  S
C2311      C2312   1.423       .  A
C2311      C2316   1.407       .  A
C2312      C2313   1.414       .  A
C2313      C2314   1.402       .  A
C2313      H2322   1.078       .  S
C2314      C2315   1.405       .  A
C2314      H2323   1.081       .  S
C2315      C2316   1.403       .  A
C2316      H2324   1.083       .  S
C2325      C2326   1.404       .  A
C2325      C2330   1.407       .  A
C2326      C2327   1.399       .  A
C2326      H2339   1.081       .  S
C2327      C2328   1.415       .  A
C2327      H2340   1.077       .  S
C2328      C2334   1.434       .  A
C2328      C2329   1.421       .  A
C2329      C2331   1.401       .  A
C2329      C2330   1.410       .  A
C2330      H2341   1.082       .  S
C2331      C2332   1.392       .  A
C2331      H2342   1.084       .  S
C2332      C2333   1.400       .  A
C2332      H2343   1.084       .  S
C2333      C2334   1.425       .  A
C2333      C2338   1.411       .  A
C2334      C2335   1.414       .  A
C2335      C2336   1.396       .  A
C2335      H2344   1.077       .  S
C2336      C2337   1.400       .  A
C2336      H2345   1.084       .  S
C2337      C2338   1.401       .  A
C2338      H2346   1.084       .  S
C2347      C2348   1.400       .  A
C2347      C2352   1.400       .  A
C2348      C2349   1.401       .  A
C2348      H2361   1.083       .  S
C2349      C2350   1.417       .  A
C2349      H2362   1.077       .  S
C2350      C2356   1.435       .  A
C2350      C2351   1.423       .  A
C2351      C2353   1.399       .  A
C2351      C2352   1.406       .  A
C2352      H2363   1.084       .  S
C2353      C2354   1.390       .  A
C2353      H2364   1.084       .  S
C2354      C2355   1.400       .  A
C2354      H2365   1.084       .  S
C2355      C2356   1.422       .  A
C2355      C2360   1.408       .  A
C2356      C2357   1.415       .  A
C2357      C2358   1.402       .  A
C2357      H2366   1.078       .  S
C2358      C2359   1.404       .  A
C2358      H2367   1.082       .  S
C2359      C2360   1.405       .  A
C2360      H2368   1.082       .  S
C2369      C2370   1.400       .  A
C2369      C2374   1.403       .  A
C2370      C2371   1.394       .  A
C2370      H2383   1.084       .  S
C2371      C2372   1.413       .  A
C2371      H2384   1.077       .  S
C2372      C2378   1.434       .  A
C2372      C2373   1.424       .  A
C2373      C2375   1.401       .  A
C2373      C2374   1.415       .  A
C2374      H2385   1.084       .  S
C2375      C2376   1.395       .  A
C2375      H2386   1.084       .  S
C2376      C2377   1.403       .  A
C2376      H2387   1.084       .  S
C2377      C2378   1.420       .  A
C2377      C2382   1.412       .  A
C2378      C2379   1.415       .  A
C2379      C2380   1.398       .  A
C2379      H2388   1.076       .  S
C2380      C2381   1.402       .  A
C2380      H2389   1.081       .  S
C2381      C2382   1.410       .  A
C2382      H2390   1.082       .  S
C2391      C2392   1.405       .  A
C2391      C2396   1.404       .  A
C2392      C2393   1.402       .  A
C2392      H2405   1.081       .  S
C2393      C2394   1.414       .  A
C2393      H2406   1.078       .  S
C2394      C2400   1.436       .  A
C2394      C2395   1.423       .  A
C2395      C2397   1.399       .  A
C2395      C2396   1.407       .  A
C2396      H2407   1.082       .  S
C2397      C2398   1.389       .  A
C2397      H2408   1.084       .  S
C2398      C2399   1.399       .  A
C2398      H2409   1.084       .  S
C2399      C2400   1.421       .  A
C2399      C2404   1.404       .  A
C2400      C2401   1.419       .  A
C2401      C2402   1.405       .  A
C2401      H2410   1.078       .  S
C2402      C2403   1.401       .  A
C2402      H2411   1.083       .  S
C2403      C2404   1.402       .  A
C2404      H2412   1.085       .  S
C2413      C2414   1.403       .  A
C2413      C2418   1.403       .  A
C2414      C2415   1.399       .  A
C2414      H2427   1.082       .  S
C2415      C2416   1.415       .  A
C2415      H2428   1.077       .  S
C2416      C2422   1.432       .  A
C2416      C2417   1.422       .  A
C2417      C2419   1.400       .  A
C2417      C2418   1.406       .  A
C2418      H2429   1.083       .  S
C2419      C2420   1.389       .  A
C2419      H2430   1.084       .  S
C2420      C2421   1.399       .  A
C2420      H2431   1.084       .  S
C2421      C2422   1.423       .  A
C2421      C2426   1.405       .  A
C2422      C2423   1.416       .  A
C2423      C2424   1.399       .  A
C2423      H2432   1.077       .  S
C2424      C2425   1.400       .  A
C2424      H2433   1.083       .  S
C2425      C2426   1.400       .  A
C2426      H2434   1.083       .  S
C2435      C2436   1.407       .  A
C2435      C2440   1.409       .  A
C2436      C2437   1.406       .  A
C2436      H2449   1.076       .  S
C2437      C2438   1.416       .  A
C2437      H2450   1.079       .  S
C2438      C2444   1.436       .  A
C2438      C2439   1.418       .  A
C2439      C2441   1.400       .  A
C2439      C2440   1.403       .  A
C2440      H2451   1.081       .  S
C2441      C2442   1.388       .  A
C2441      H2452   1.084       .  S
C2442      C2443   1.398       .  A
C2442      H2453   1.084       .  S
C2443      C2444   1.424       .  A
C2443      C2448   1.406       .  A
C2444      C2445   1.416       .  A
C2445      C2446   1.404       .  A
C2445      H2454   1.078       .  S
C2446      C2447   1.401       .  A
C2446      H2455   1.083       .  S
C2447      C2448   1.399       .  A
C2448      H2456   1.085       .  S
C2457      C2458   1.401       .  A
C2457      C2462   1.403       .  A
C2458      C2459   1.398       .  A
C2458      H2471   1.084       .  S
C2459      C2460   1.414       .  A
C2459      H2472   1.077       .  S
C2460      C2466   1.436       .  A
C2460      C2461   1.424       .  A
C2461      C2463   1.400       .  A
C2461      C2462   1.414       .  A
C2462      H2473   1.084       .  S
C2463      C2464   1.394       .  A
C2463      H2474   1.084       .  S
C2464      C2465   1.401       .  A
C2464      H2475   1.084       .  S
C2465      C2466   1.421       .  A
C2465      C2470   1.413       .  A
C2466      C2467   1.415       .  A
C2467      C2468   1.400       .  A
C2467      H2476   1.078       .  S
C2468      C2469   1.405       .  A
C2468      H2477   1.081       .  S
C2469      C2470   1.408       .  A
C2470      H2478   1.083       .  S
C2479      C2480   1.396       .  A
C2479      C2484   1.397       .  A
C2480      C2481   1.401       .  A
C2480      H2493   1.083       .  S
C2481      C2482   1.418       .  A
C2481      H2494   1.077       .  S
C2482      C2488   1.434       .  A
C2482      C2483   1.424       .  A
C2483      C2485   1.399       .  A
C2483      C2484   1.405       .  A
C2484      H2495   1.084       .  S
C2485      C2486   1.390       .  A
C2485      H2496   1.084       .  S
C2486      C2487   1.400       .  A
C2486      H2497   1.084       .  S
C2487      C2488   1.423       .  A
C2487      C2492   1.409       .  A
C2488      C2489   1.415       .  A
C2489      C2490   1.400       .  A
C2489      H2498   1.077       .  S
C2490      C2491   1.403       .  A
C2490      H2499   1.083       .  S
C2491      C2492   1.403       .  A
C2492      H2500   1.083       .  S
C2501      C2502   1.401       .  A
C2501      C2506   1.402       .  A
C2502      C2503   1.405       .  A
C2502      H2515   1.083       .  S
C2503      C2504   1.419       .  A
C2503      H2516   1.077       .  S
C2504      C2510   1.437       .  A
C2504      C2505   1.422       .  A
C2505      C2507   1.399       .  A
C2505      C2506   1.406       .  A
C2506      H2517   1.085       .  S
C2507      C2508   1.390       .  A
C2507      H2518   1.084       .  S
C2508      C2509   1.399       .  A
C2508      H2519   1.084       .  S
C2509      C2510   1.423       .  A
C2509      C2514   1.409       .  A
C2510      C2511   1.415       .  A
C2511      C2512   1.403       .  A
C2511      H2520   1.078       .  S
C2512      C2513   1.405       .  A
C2512      H2521   1.081       .  S
C2513      C2514   1.405       .  A
C2514      H2522   1.082       .  S
C2523      C2524   1.400       .  A
C2523      C2528   1.404       .  A
C2524      C2525   1.397       .  A
C2524      H2537   1.083       .  S
C2525      C2526   1.415       .  A
C2525      H2538   1.078       .  S
C2526      C2532   1.432       .  A
C2526      C2527   1.422       .  A
C2527      C2529   1.401       .  A
C2527      C2528   1.408       .  A
C2528      H2539   1.084       .  S
C2529      C2530   1.392       .  A
C2529      H2540   1.084       .  S
C2530      C2531   1.400       .  A
C2530      H2541   1.084       .  S
C2531      C2532   1.423       .  A
C2531      C2536   1.409       .  A
C2532      C2533   1.415       .  A
C2533      C2534   1.397       .  A
C2533      H2542   1.078       .  S
C2534      C2535   1.397       .  A
C2534      H2543   1.084       .  S
C2535      C2536   1.399       .  A
C2536      H2544   1.085       .  S
C2545      C2546   1.403       .  A
C2545      C2550   1.403       .  A
C2546      C2547   1.397       .  A
C2546      H2559   1.082       .  S
C2547      C2548   1.414       .  A
C2547      H2560   1.077       .  S
C2548      C2554   1.431       .  A
C2548      C2549   1.422       .  A
C2549      C2551   1.400       .  A
C2549      C2550   1.406       .  A
C2550      H2561   1.083       .  S
C2551      C2552   1.389       .  A
C2551      H2562   1.084       .  S
C2552      C2553   1.399       .  A
C2552      H2563   1.084       .  S
C2553      C2554   1.423       .  A
C2553      C2558   1.404       .  A
C2554      C2555   1.416       .  A
C2555      C2556   1.397       .  A
C2555      H2564   1.077       .  S
C2556      C2557   1.398       .  A
C2556      H2565   1.083       .  S
C2557      C2558   1.399       .  A
C2558      H2566   1.084       .  S
C2567      C2568   1.401       .  A
C2567      C2572   1.403       .  A
C2568      C2569   1.396       .  A
C2568      H2581   1.084       .  S
C2569      C2570   1.414       .  A
C2569      H2582   1.076       .  S
C2570      C2576   1.435       .  A
C2570      C2571   1.425       .  A
C2571      C2573   1.401       .  A
C2571      C2572   1.415       .  A
C2572      H2583   1.084       .  S
C2573      C2574   1.395       .  A
C2573      H2584   1.084       .  S
C2574      C2575   1.402       .  A
C2574      H2585   1.084       .  S
C2575      C2576   1.421       .  A
C2575      C2580   1.413       .  A
C2576      C2577   1.415       .  A
C2577      C2578   1.399       .  A
C2577      H2586   1.076       .  S
C2578      C2579   1.404       .  A
C2578      H2587   1.081       .  S
C2579      C2580   1.409       .  A
C2580      H2588   1.082       .  S
C2589      C2590   1.404       .  A
C2589      C2594   1.403       .  A
C2590      C2591   1.402       .  A
C2590      H2603   1.082       .  S
C2591      C2592   1.415       .  A
C2591      H2604   1.077       .  S
C2592      C2598   1.435       .  A
C2592      C2593   1.423       .  A
C2593      C2595   1.399       .  A
C2593      C2594   1.407       .  A
C2594      H2605   1.083       .  S
C2595      C2596   1.389       .  A
C2595      H2606   1.084       .  S
C2596      C2597   1.399       .  A
C2596      H2607   1.084       .  S
C2597      C2598   1.423       .  A
C2597      C2602   1.404       .  A
C2598      C2599   1.418       .  A
C2599      C2600   1.402       .  A
C2599      H2608   1.077       .  S
C2600      C2601   1.400       .  A
C2600      H2609   1.083       .  S
C2601      C2602   1.400       .  A
C2602      H2610   1.084       .  S
C2611      C2612   1.402       .  A
C2611      C2616   1.402       .  A
C2612      C2613   1.398       .  A
C2612      H2625   1.084       .  S
C2613      C2614   1.414       .  A
C2613      H2626   1.078       .  S
C2614      C2620   1.438       .  A
C2614      C2615   1.425       .  A
C2615      C2617   1.400       .  A
C2615      C2616   1.415       .  A
C2616      H2627   1.084       .  S
C2617      C2618   1.394       .  A
C2617      H2628   1.084       .  S
C2618      C2619   1.402       .  A
C2618      H2629   1.084       .  S
C2619      C2620   1.421       .  A
C2619      C2624   1.413       .  A
C2620      C2621   1.416       .  A
C2621      C2622   1.401       .  A
C2621      H2630   1.078       .  S
C2622      C2623   1.404       .  A
C2622      H2631   1.081       .  S
C2623      C2624   1.408       .  A
C2624      H2632   1.082       .  S
C2633      C2634   1.400       .  A
C2633      C2638   1.402       .  A
C2634      C2635   1.404       .  A
C2634      H2647   1.083       .  S
C2635      C2636   1.419       .  A
C2635      H2648   1.078       .  S
C2636      C2642   1.437       .  A
C2636      C2637   1.422       .  A
C2637      C2639   1.400       .  A
C2637      C2638   1.406       .  A
C2638      H2649   1.085       .  S
C2639      C2640   1.390       .  A
C2639      H2650   1.084       .  S
C2640      C2641   1.400       .  A
C2640      H2651   1.084       .  S
C2641      C2642   1.423       .  A
C2641      C2646   1.409       .  A
C2642      C2643   1.414       .  A
C2643      C2644   1.402       .  A
C2643      H2652   1.078       .  S
C2644      C2645   1.405       .  A
C2644      H2653   1.081       .  S
C2645      C2646   1.405       .  A
C2646      H2654   1.082       .  S
C2655      C2656   1.405       .  A
C2655      C2660   1.404       .  A
C2656      C2657   1.401       .  A
C2656      H2669   1.082       .  S
C2657      C2658   1.415       .  A
C2657      H2670   1.078       .  S
C2658      C2664   1.436       .  A
C2658      C2659   1.423       .  A
C2659      C2661   1.399       .  A
C2659      C2660   1.408       .  A
C2660      H2671   1.083       .  S
C2661      C2662   1.390       .  A
C2661      H2672   1.084       .  S
C2662      C2663   1.399       .  A
C2662      H2673   1.084       .  S
C2663      C2664   1.422       .  A
C2663      C2668   1.406       .  A
C2664      C2665   1.418       .  A
C2665      C2666   1.403       .  A
C2665      H2674   1.078       .  S
C2666      C2667   1.400       .  A
C2666      H2675   1.083       .  S
C2667      C2668   1.401       .  A
C2668      H2676   1.085       .  S
C2677      C2678   1.403       .  A
C2677      C2682   1.403       .  A
C2678      C2679   1.401       .  A
C2678      H2691   1.082       .  S
C2679      C2680   1.416       .  A
C2679      H2692   1.077       .  S
C2680      C2686   1.435       .  A
C2680      C2681   1.422       .  A
C2681      C2683   1.400       .  A
C2681      C2682   1.408       .  A
C2682      H2693   1.083       .  S
C2683      C2684   1.390       .  A
C2683      H2694   1.084       .  S
C2684      C2685   1.399       .  A
C2684      H2695   1.084       .  S
C2685      C2686   1.423       .  A
C2685      C2690   1.407       .  A
C2686      C2687   1.416       .  A
C2687      C2688   1.399       .  A
C2687      H2696   1.077       .  S
C2688      C2689   1.402       .  A
C2688      H2697   1.083       .  S
C2689      C2690   1.401       .  A
C2690      H2698   1.083       .  S
C2699      C2700   1.402       .  A
C2699      C2704   1.408       .  A
C2700      C2701   1.398       .  A
C2700      H2713   1.081       .  S
C2701      C2702   1.415       .  A
C2701      H2714   1.078       .  S
C2702      C2708   1.434       .  A
C2702      C2703   1.421       .  A
C2703      C2705   1.402       .  A
C2703      C2704   1.410       .  A
C2704      H2715   1.083       .  S
C2705      C2706   1.393       .  A
C2705      H2716   1.084       .  S
C2706      C2707   1.400       .  A
C2706      H2717   1.084       .  S
C2707      C2708   1.425       .  A
C2707      C2712   1.413       .  A
C2708      C2709   1.414       .  A
C2709      C2710   1.395       .  A
C2709      H2718   1.078       .  S
C2710      C2711   1.399       .  A
C2710      H2719   1.084       .  S
C2711      C2712   1.401       .  A
C2712      H2720   1.085       .  S
C2721      C2722   1.403       .  A
C2721      C2726   1.404       .  A
C2722      C2723   1.397       .  A
C2722      H2735   1.081       .  S
C2723      C2724   1.414       .  A
C2723      H2736   1.076       .  S
C2724      C2730   1.430       .  A
C2724      C2725   1.421       .  A
C2725      C2727   1.400       .  A
C2725      C2726   1.404       .  A
C2726      H2737   1.082       .  S
C2727      C2728   1.389       .  A
C2727      H2738   1.084       .  S
C2728      C2729   1.399       .  A
C2728      H2739   1.084       .  S
C2729      C2730   1.423       .  A
C2729      C2734   1.404       .  A
C2730      C2731   1.416       .  A
C2731      C2732   1.397       .  A
C2731      H2740   1.076       .  S
C2732      C2733   1.397       .  A
C2732      H2741   1.083       .  S
C2733      C2734   1.398       .  A
C2734      H2742   1.084       .  S
C2743      C2744   1.400       .  A
C2743      C2748   1.403       .  A
C2744      C2745   1.403       .  A
C2744      H2757   1.083       .  S
C2745      C2746   1.418       .  A
C2745      H2758   1.077       .  S
C2746      C2752   1.435       .  A
C2746      C2747   1.421       .  A
C2747      C2749   1.400       .  A
C2747      C2748   1.406       .  A
C2748      H2759   1.085       .  S
C2749      C2750   1.390       .  A
C2749      H2760   1.084       .  S
C2750      C2751   1.400       .  A
C2750      H2761   1.084       .  S
C2751      C2752   1.423       .  A
C2751      C2756   1.409       .  A
C2752      C2753   1.413       .  A
C2753      C2754   1.400       .  A
C2753      H2762   1.077       .  S
C2754      C2755   1.405       .  A
C2754      H2763   1.081       .  S
C2755      C2756   1.405       .  A
C2756      H2764   1.082       .  S
C2765      C2766   1.406       .  A
C2765      C2770   1.404       .  A
C2766      C2767   1.400       .  A
C2766      H2779   1.081       .  S
C2767      C2768   1.413       .  A
C2767      H2780   1.077       .  S
C2768      C2774   1.435       .  A
C2768      C2769   1.423       .  A
C2769      C2771   1.399       .  A
C2769      C2770   1.409       .  A
C2770      H2781   1.082       .  S
C2771      C2772   1.390       .  A
C2771      H2782   1.084       .  S
C2772      C2773   1.399       .  A
C2772      H2783   1.084       .  S
C2773      C2774   1.421       .  A
C2773      C2778   1.405       .  A
C2774      C2775   1.418       .  A
C2775      C2776   1.403       .  A
C2775      H2784   1.077       .  S
C2776      C2777   1.400       .  A
C2776      H2785   1.083       .  S
C2777      C2778   1.401       .  A
C2778      H2786   1.085       .  S
C2787      C2788   1.403       .  A
C2787      C2792   1.403       .  A
C2788      C2789   1.399       .  A
C2788      H2801   1.082       .  S
C2789      C2790   1.415       .  A
C2789      H2802   1.077       .  S
C2790      C2796   1.433       .  A
C2790      C2791   1.422       .  A
C2791      C2793   1.399       .  A
C2791      C2792   1.405       .  A
C2792      H2803   1.083       .  S
C2793      C2794   1.389       .  A
C2793      H2804   1.084       .  S
C2794      C2795   1.399       .  A
C2794      H2805   1.084       .  S
C2795      C2796   1.422       .  A
C2795      C2800   1.404       .  A
C2796      C2797   1.416       .  A
C2797      C2798   1.399       .  A
C2797      H2806   1.077       .  S
C2798      C2799   1.400       .  A
C2798      H2807   1.082       .  S
C2799      C2800   1.401       .  A
C2800      H2808   1.084       .  S
C2809      C2810   1.404       .  A
C2809      C2814   1.408       .  A
C2810      C2811   1.398       .  A
C2810      H2823   1.081       .  S
C2811      C2812   1.414       .  A
C2811      H2824   1.078       .  S
C2812      C2818   1.434       .  A
C2812      C2813   1.421       .  A
C2813      C2815   1.402       .  A
C2813      C2814   1.412       .  A
C2814      H2825   1.083       .  S
C2815      C2816   1.394       .  A
C2815      H2826   1.084       .  S
C2816      C2817   1.400       .  A
C2816      H2827   1.084       .  S
C2817      C2818   1.424       .  A
C2817      C2822   1.413       .  A
C2818      C2819   1.413       .  A
C2819      C2820   1.395       .  A
C2819      H2828   1.078       .  S
C2820      C2821   1.402       .  A
C2820      H2829   1.084       .  S
C2821      C2822   1.403       .  A
C2822      H2830   1.084       .  S
C2831      C2832   1.404       .  A
C2831      C2836   1.408       .  A
C2832      C2833   1.399       .  A
C2832      H2845   1.081       .  S
C2833      C2834   1.415       .  A
C2833      H2846   1.077       .  S
C2834      C2840   1.435       .  A
C2834      C2835   1.421       .  A
C2835      C2837   1.402       .  A
C2835      C2836   1.411       .  A
C2836      H2847   1.082       .  S
C2837      C2838   1.393       .  A
C2837      H2848   1.084       .  S
C2838      C2839   1.400       .  A
C2838      H2849   1.084       .  S
C2839      C2840   1.425       .  A
C2839      C2844   1.413       .  A
C2840      C2841   1.413       .  A
C2841      C2842   1.396       .  A
C2841      H2850   1.077       .  S
C2842      C2843   1.401       .  A
C2842      H2851   1.084       .  S
C2843      C2844   1.402       .  A
C2844      H2852   1.084       .  S
C2853      C2854   1.403       .  A
C2853      C2858   1.404       .  A
C2854      C2855   1.399       .  A
C2854      H2867   1.082       .  S
C2855      C2856   1.415       .  A
C2855      H2868   1.078       .  S
C2856      C2862   1.433       .  A
C2856      C2857   1.422       .  A
C2857      C2859   1.400       .  A
C2857      C2858   1.407       .  A
C2858      H2869   1.083       .  S
C2859      C2860   1.390       .  A
C2859      H2870   1.084       .  S
C2860      C2861   1.399       .  A
C2860      H2871   1.084       .  S
C2861      C2862   1.423       .  A
C2861      C2866   1.406       .  A
C2862      C2863   1.416       .  A
C2863      C2864   1.398       .  A
C2863      H2872   1.077       .  S
C2864      C2865   1.399       .  A
C2864      H2873   1.083       .  S
C2865      C2866   1.400       .  A
C2866      H2874   1.084       .  S
C2875      C2876   1.399       .  A
C2875      C2880   1.401       .  A
C2876      C2877   1.396       .  A
C2876      H2889   1.084       .  S
C2877      C2878   1.414       .  A
C2877      H2890   1.077       .  S
C2878      C2884   1.434       .  A
C2878      C2879   1.425       .  A
C2879      C2881   1.400       .  A
C2879      C2880   1.412       .  A
C2880      H2891   1.084       .  S
C2881      C2882   1.393       .  A
C2881      H2892   1.084       .  S
C2882      C2883   1.402       .  A
C2882      H2893   1.084       .  S
C2883      C2884   1.421       .  A
C2883      C2888   1.410       .  A
C2884      C2885   1.415       .  A
C2885      C2886   1.399       .  A
C2885      H2894   1.077       .  S
C2886      C2887   1.403       .  A
C2886      H2895   1.081       .  S
C2887      C2888   1.408       .  A
C2888      H2896   1.082       .  S
C2897      C2898   1.400       .  A
C2897      C2902   1.401       .  A
C2898      C2899   1.405       .  A
C2898      H2911   1.083       .  S
C2899      C2900   1.419       .  A
C2899      H2912   1.078       .  S
C2900      C2906   1.436       .  A
C2900      C2901   1.421       .  A
C2901      C2903   1.399       .  A
C2901      C2902   1.404       .  A
C2902      H2913   1.085       .  S
C2903      C2904   1.389       .  A
C2903      H2914   1.084       .  S
C2904      C2905   1.399       .  A
C2904      H2915   1.084       .  S
C2905      C2906   1.424       .  A
C2905      C2910   1.408       .  A
C2906      C2907   1.414       .  A
C2907      C2908   1.401       .  A
C2907      H2916   1.078       .  S
C2908      C2909   1.406       .  A
C2908      H2917   1.081       .  S
C2909      C2910   1.403       .  A
C2910      H2918   1.082       .  S
C2919      C2920   1.403       .  A
C2919      C2924   1.408       .  A
C2920      C2921   1.397       .  A
C2920      H2933   1.081       .  S
C2921      C2922   1.414       .  A
C2921      H2934   1.077       .  S
C2922      C2928   1.432       .  A
C2922      C2923   1.420       .  A
C2923      C2925   1.402       .  A
C2923      C2924   1.410       .  A
C2924      H2935   1.082       .  S
C2925      C2926   1.394       .  A
C2925      H2936   1.084       .  S
C2926      C2927   1.400       .  A
C2926      H2937   1.084       .  S
C2927      C2928   1.424       .  A
C2927      C2932   1.413       .  A
C2928      C2929   1.412       .  A
C2929      C2930   1.394       .  A
C2929      H2938   1.078       .  S
C2930      C2931   1.400       .  A
C2930      H2939   1.084       .  S
C2931      C2932   1.403       .  A
C2932      H2940   1.084       .  S
C2941      C2942   1.402       .  A
C2941      C2946   1.406       .  A
C2942      C2943   1.396       .  A
C2942      H2955   1.081       .  S
C2943      C2944   1.414       .  A
C2943      H2956   1.078       .  S
C2944      C2950   1.433       .  A
C2944      C2945   1.421       .  A
C2945      C2947   1.401       .  A
C2945      C2946   1.410       .  A
C2946      H2957   1.083       .  S
C2947      C2948   1.393       .  A
C2947      H2958   1.084       .  S
C2948      C2949   1.400       .  A
C2948      H2959   1.084       .  S
C2949      C2950   1.424       .  A
C2949      C2954   1.411       .  A
C2950      C2951   1.414       .  A
C2951      C2952   1.395       .  A
C2951      H2960   1.078       .  S
C2952      C2953   1.399       .  A
C2952      H2961   1.084       .  S
C2953      C2954   1.401       .  A
C2954      H2962   1.085       .  S
C2963      C2964   1.403       .  A
C2963      C2968   1.404       .  A
C2964      C2965   1.397       .  A
C2964      H2977   1.082       .  S
C2965      C2966   1.414       .  A
C2965      H2978   1.077       .  S
C2966      C2972   1.432       .  A
C2966      C2967   1.422       .  A
C2967      C2969   1.400       .  A
C2967      C2968   1.407       .  A
C2968      H2979   1.083       .  S
C2969      C2970   1.390       .  A
C2969      H2980   1.084       .  S
C2970      C2971   1.399       .  A
C2970      H2981   1.084       .  S
C2971      C2972   1.423       .  A
C2971      C2976   1.406       .  A
C2972      C2973   1.415       .  A
C2973      C2974   1.397       .  A
C2973      H2982   1.077       .  S
C2974      C2975   1.399       .  A
C2974      H2983   1.083       .  S
C2975      C2976   1.400       .  A
C2976      H2984   1.084       .  S
C2985      C2986   1.398       .  A
C2985      C2990   1.402       .  A
C2986      C2987   1.394       .  A
C2986      H2999   1.084       .  S
C2987      C2988   1.414       .  A
C2987      H3000   1.077       .  S
C2988      C2994   1.433       .  A
C2988      C2989   1.424       .  A
C2989      C2991   1.401       .  A
C2989      C2990   1.412       .  A
C2990      H3001   1.084       .  S
C2991      C2992   1.394       .  A
C2991      H3002   1.084       .  S
C2992      C2993   1.402       .  A
C2992      H3003   1.084       .  S
C2993      C2994   1.421       .  A
C2993      C2998   1.412       .  A
C2994      C2995   1.414       .  A
C2995      C2996   1.396       .  A
C2995      H3004   1.077       .  S
C2996      C2997   1.402       .  A
C2996      H3005   1.081       .  S
C2997      C2998   1.408       .  A
C2998      H3006   1.083       .  S
C3007      C3008   1.406       .  A
C3007      C3012   1.404       .  A
C3008      C3009   1.402       .  A
C3008      H3021   1.081       .  S
C3009      C3010   1.414       .  A
C3009      H3022   1.078       .  S
C3010      C3016   1.436       .  A
C3010      C3011   1.423       .  A
C3011      C3013   1.399       .  A
C3011      C3012   1.408       .  A
C3012      H3023   1.082       .  S
C3013      C3014   1.389       .  A
C3013      H3024   1.084       .  S
C3014      C3015   1.399       .  A
C3014      H3025   1.084       .  S
C3015      C3016   1.422       .  A
C3015      C3020   1.404       .  A
C3016      C3017   1.419       .  A
C3017      C3018   1.405       .  A
C3017      H3026   1.078       .  S
C3018      C3019   1.401       .  A
C3018      H3027   1.083       .  S
C3019      C3020   1.401       .  A
C3020      H3028   1.085       .  S
C3029      C3030   1.402       .  A
C3029      C3034   1.404       .  A
C3030      C3031   1.396       .  A
C3030      H3043   1.082       .  S
C3031      C3032   1.414       .  A
C3031      H3044   1.076       .  S
C3032      C3038   1.431       .  A
C3032      C3033   1.422       .  A
C3033      C3035   1.400       .  A
C3033      C3034   1.407       .  A
C3034      H3045   1.082       .  S
C3035      C3036   1.391       .  A
C3035      H3046   1.084       .  S
C3036      C3037   1.399       .  A
C3036      H3047   1.084       .  S
C3037      C3038   1.423       .  A
C3037      C3042   1.406       .  A
C3038      C3039   1.415       .  A
C3039      C3040   1.396       .  A
C3039      H3048   1.076       .  S
C3040      C3041   1.398       .  A
C3040      H3049   1.083       .  S
C3041      C3042   1.400       .  A
C3042      H3050   1.083       .  S
C3051      C3052   1.403       .  A
C3051      C3056   1.405       .  A
C3052      C3053   1.397       .  A
C3052      H3065   1.081       .  S
C3053      C3054   1.414       .  A
C3053      H3066   1.077       .  S
C3054      C3060   1.432       .  A
C3054      C3055   1.422       .  A
C3055      C3057   1.400       .  A
C3055      C3056   1.408       .  A
C3056      H3067   1.083       .  S
C3057      C3058   1.391       .  A
C3057      H3068   1.084       .  S
C3058      C3059   1.399       .  A
C3058      H3069   1.084       .  S
C3059      C3060   1.423       .  A
C3059      C3064   1.406       .  A
C3060      C3061   1.417       .  A
C3061      C3062   1.398       .  A
C3061      H3070   1.077       .  S
C3062      C3063   1.396       .  A
C3062      H3071   1.083       .  S
C3063      C3064   1.398       .  A
C3064      H3072   1.084       .  S
C3073      C3074   1.402       .  A
C3073      C3078   1.403       .  A
C3074      C3075   1.408       .  A
C3074      H3087   1.083       .  S
C3075      C3076   1.420       .  A
C3075      H3088   1.078       .  S
C3076      C3082   1.440       .  A
C3076      C3077   1.422       .  A
C3077      C3079   1.400       .  A
C3077      C3078   1.407       .  A
C3078      H3089   1.085       .  S
C3079      C3080   1.390       .  A
C3079      H3090   1.084       .  S
C3080      C3081   1.399       .  A
C3080      H3091   1.084       .  S
C3081      C3082   1.424       .  A
C3081      C3086   1.411       .  A
C3082      C3083   1.415       .  A
C3083      C3084   1.405       .  A
C3083      H3092   1.078       .  S
C3084      C3085   1.407       .  A
C3084      H3093   1.081       .  S
C3085      C3086   1.406       .  A
C3086      H3094   1.082       .  S
C3095      C3096   1.401       .  A
C3095      C3100   1.403       .  A
C3096      C3097   1.399       .  A
C3096      H3109   1.084       .  S
C3097      C3098   1.415       .  A
C3097      H3110   1.077       .  S
C3098      C3104   1.438       .  A
C3098      C3099   1.425       .  A
C3099      C3101   1.401       .  A
C3099      C3100   1.416       .  A
C3100      H3111   1.084       .  S
C3101      C3102   1.395       .  A
C3101      H3112   1.084       .  S
C3102      C3103   1.402       .  A
C3102      H3113   1.084       .  S
C3103      C3104   1.421       .  A
C3103      C3108   1.414       .  A
C3104      C3105   1.415       .  A
C3105      C3106   1.401       .  A
C3105      H3114   1.077       .  S
C3106      C3107   1.404       .  A
C3106      H3115   1.081       .  S
C3107      C3108   1.410       .  A
C3108      H3116   1.082       .  S
C3117      C3118   1.399       .  A
C3117      C3122   1.398       .  A
C3118      C3119   1.401       .  A
C3118      H3131   1.083       .  S
C3119      C3120   1.418       .  A
C3119      H3132   1.078       .  S
C3120      C3126   1.433       .  A
C3120      C3121   1.422       .  A
C3121      C3123   1.398       .  A
C3121      C3122   1.402       .  A
C3122      H3133   1.085       .  S
C3123      C3124   1.388       .  A
C3123      H3134   1.084       .  S
C3124      C3125   1.399       .  A
C3124      H3135   1.084       .  S
C3125      C3126   1.423       .  A
C3125      C3130   1.405       .  A
C3126      C3127   1.414       .  A
C3127      C3128   1.400       .  A
C3127      H3136   1.078       .  S
C3128      C3129   1.404       .  A
C3128      H3137   1.082       .  S
C3129      C3130   1.402       .  A
C3130      H3138   1.083       .  S
C3139      C3140   1.404       .  A
C3139      C3144   1.404       .  A
C3140      C3141   1.397       .  A
C3140      H3153   1.081       .  S
C3141      C3142   1.413       .  A
C3141      H3154   1.077       .  S
C3142      C3148   1.432       .  A
C3142      C3143   1.423       .  A
C3143      C3145   1.400       .  A
C3143      C3144   1.408       .  A
C3144      H3155   1.083       .  S
C3145      C3146   1.390       .  A
C3145      H3156   1.084       .  S
C3146      C3147   1.400       .  A
C3146      H3157   1.084       .  S
C3147      C3148   1.422       .  A
C3147      C3152   1.405       .  A
C3148      C3149   1.418       .  A
C3149      C3150   1.400       .  A
C3149      H3158   1.077       .  S
C3150      C3151   1.398       .  A
C3150      H3159   1.083       .  S
C3151      C3152   1.400       .  A
C3152      H3160   1.085       .  S
C3161      C3162   1.402       .  A
C3161      C3166   1.404       .  A
C3162      C3163   1.396       .  A
C3162      H3175   1.081       .  S
C3163      C3164   1.413       .  A
C3163      H3176   1.077       .  S
C3164      C3170   1.431       .  A
C3164      C3165   1.422       .  A
C3165      C3167   1.400       .  A
C3165      C3166   1.407       .  A
C3166      H3177   1.083       .  S
C3167      C3168   1.391       .  A
C3167      H3178   1.084       .  S
C3168      C3169   1.400       .  A
C3168      H3179   1.084       .  S
C3169      C3170   1.423       .  A
C3169      C3174   1.406       .  A
C3170      C3171   1.416       .  A
C3171      C3172   1.396       .  A
C3171      H3180   1.077       .  S
C3172      C3173   1.398       .  A
C3172      H3181   1.083       .  S
C3173      C3174   1.400       .  A
C3174      H3182   1.084       .  S
C3183      C3184   1.402       .  A
C3183      C3188   1.404       .  A
C3184      C3185   1.407       .  A
C3184      H3197   1.082       .  S
C3185      C3186   1.420       .  A
C3185      H3198   1.078       .  S
C3186      C3192   1.438       .  A
C3186      C3187   1.421       .  A
C3187      C3189   1.400       .  A
C3187      C3188   1.403       .  A
C3188      H3199   1.085       .  S
C3189      C3190   1.388       .  A
C3189      H3200   1.084       .  S
C3190      C3191   1.399       .  A
C3190      H3201   1.084       .  S
C3191      C3192   1.424       .  A
C3191      C3196   1.408       .  A
C3192      C3193   1.414       .  A
C3193      C3194   1.403       .  A
C3193      H3202   1.078       .  S
C3194      C3195   1.406       .  A
C3194      H3203   1.081       .  S
C3195      C3196   1.403       .  A
C3196      H3204   1.082       .  S
C3205      C3206   1.406       .  A
C3205      C3210   1.403       .  A
C3206      C3207   1.403       .  A
C3206      H3219   1.082       .  S
C3207      C3208   1.414       .  A
C3207      H3220   1.078       .  S
C3208      C3214   1.437       .  A
C3208      C3209   1.423       .  A
C3209      C3211   1.399       .  A
C3209      C3210   1.407       .  A
C3210      H3221   1.082       .  S
C3211      C3212   1.388       .  A
C3211      H3222   1.084       .  S
C3212      C3213   1.399       .  A
C3212      H3223   1.084       .  S
C3213      C3214   1.422       .  A
C3213      C3218   1.403       .  A
C3214      C3215   1.419       .  A
C3215      C3216   1.405       .  A
C3215      H3224   1.078       .  S
C3216      C3217   1.401       .  A
C3216      H3225   1.083       .  S
C3217      C3218   1.401       .  A
C3218      H3226   1.085       .  S
C3227      C3228   1.404       .  A
C3227      C3232   1.404       .  A
C3228      C3229   1.399       .  A
C3228      H3241   1.082       .  S
C3229      C3230   1.414       .  A
C3229      H3242   1.077       .  S
C3230      C3236   1.435       .  A
C3230      C3231   1.423       .  A
C3231      C3233   1.400       .  A
C3231      C3232   1.409       .  A
C3232      H3243   1.083       .  S
C3233      C3234   1.391       .  A
C3233      H3244   1.084       .  S
C3234      C3235   1.400       .  A
C3234      H3245   1.084       .  S
C3235      C3236   1.423       .  A
C3235      C3240   1.406       .  A
C3236      C3237   1.418       .  A
C3237      C3238   1.401       .  A
C3237      H3246   1.077       .  S
C3238      C3239   1.398       .  A
C3238      H3247   1.083       .  S
C3239      C3240   1.400       .  A
C3240      H3248   1.084       .  S
C3249      C3250   1.403       .  A
C3249      C3254   1.408       .  A
C3250      C3251   1.399       .  A
C3250      H3263   1.081       .  S
C3251      C3252   1.415       .  A
C3251      H3264   1.077       .  S
C3252      C3258   1.435       .  A
C3252      C3253   1.421       .  A
C3253      C3255   1.402       .  A
C3253      C3254   1.411       .  A
C3254      H3265   1.082       .  S
C3255      C3256   1.393       .  A
C3255      H3266   1.084       .  S
C3256      C3257   1.400       .  A
C3256      H3267   1.084       .  S
C3257      C3258   1.425       .  A
C3257      C3262   1.413       .  A
C3258      C3259   1.414       .  A
C3259      C3260   1.396       .  A
C3259      H3268   1.077       .  S
C3260      C3261   1.400       .  A
C3260      H3269   1.084       .  S
C3261      C3262   1.401       .  A
C3262      H3270   1.084       .  S
C3271      C3272   1.403       .  A
C3271      C3276   1.404       .  A
C3272      C3273   1.396       .  A
C3272      H3285   1.081       .  S
C3273      C3274   1.413       .  A
C3273      H3286   1.077       .  S
C3274      C3280   1.431       .  A
C3274      C3275   1.422       .  A
C3275      C3277   1.400       .  A
C3275      C3276   1.407       .  A
C3276      H3287   1.082       .  S
C3277      C3278   1.390       .  A
C3277      H3288   1.084       .  S
C3278      C3279   1.400       .  A
C3278      H3289   1.084       .  S
C3279      C3280   1.422       .  A
C3279      C3284   1.405       .  A
C3280      C3281   1.416       .  A
C3281      C3282   1.398       .  A
C3281      H3290   1.077       .  S
C3282      C3283   1.399       .  A
C3282      H3291   1.083       .  S
C3283      C3284   1.401       .  A
C3284      H3292   1.084       .  S
C3293      C3294   1.403       .  A
C3293      C3298   1.409       .  A
C3294      C3295   1.398       .  A
C3294      H3307   1.081       .  S
C3295      C3296   1.415       .  A
C3295      H3308   1.077       .  S
C3296      C3302   1.436       .  A
C3296      C3297   1.421       .  A
C3297      C3299   1.402       .  A
C3297      C3298   1.414       .  A
C3298      H3309   1.083       .  S
C3299      C3300   1.396       .  A
C3299      H3310   1.084       .  S
C3300      C3301   1.401       .  A
C3300      H3311   1.084       .  S
C3301      C3302   1.425       .  A
C3301      C3306   1.416       .  A
C3302      C3303   1.413       .  A
C3303      C3304   1.396       .  A
C3303      H3312   1.077       .  S
C3304      C3305   1.401       .  A
C3304      H3313   1.084       .  S
C3305      C3306   1.403       .  A
C3306      H3314   1.084       .  S
C3315      C3316   1.404       .  A
C3315      C3320   1.405       .  A
C3316      C3317   1.401       .  A
C3316      H3329   1.082       .  S
C3317      C3318   1.415       .  A
C3317      H3330   1.078       .  S
C3318      C3324   1.434       .  A
C3318      C3319   1.422       .  A
C3319      C3321   1.400       .  A
C3319      C3320   1.407       .  A
C3320      H3331   1.083       .  S
C3321      C3322   1.390       .  A
C3321      H3332   1.084       .  S
C3322      C3323   1.399       .  A
C3322      H3333   1.084       .  S
C3323      C3324   1.423       .  A
C3323      C3328   1.405       .  A
C3324      C3325   1.417       .  A
C3325      C3326   1.400       .  A
C3325      H3334   1.078       .  S
C3326      C3327   1.399       .  A
C3326      H3335   1.083       .  S
C3327      C3328   1.399       .  A
C3328      H3336   1.084       .  S
C3337      C3338   1.404       .  A
C3337      C3342   1.409       .  A
C3338      C3339   1.398       .  A
C3338      H3351   1.081       .  S
C3339      C3340   1.414       .  A
C3339      H3352   1.077       .  S
C3340      C3346   1.436       .  A
C3340      C3341   1.422       .  A
C3341      C3343   1.402       .  A
C3341      C3342   1.415       .  A
C3342      H3353   1.083       .  S
C3343      C3344   1.396       .  A
C3343      H3354   1.084       .  S
C3344      C3345   1.401       .  A
C3344      H3355   1.084       .  S
C3345      C3346   1.424       .  A
C3345      C3350   1.416       .  A
C3346      C3347   1.413       .  A
C3347      C3348   1.396       .  A
C3347      H3356   1.077       .  S
C3348      C3349   1.402       .  A
C3348      H3357   1.084       .  S
C3349      C3350   1.405       .  A
C3350      H3358   1.084       .  S
C3359      C3360   1.406       .  A
C3359      C3364   1.403       .  A
C3360      C3361   1.403       .  A
C3360      H3373   1.081       .  S
C3361      C3362   1.415       .  A
C3361      H3374   1.078       .  S
C3362      C3368   1.436       .  A
C3362      C3363   1.423       .  A
C3363      C3365   1.398       .  A
C3363      C3364   1.406       .  A
C3364      H3375   1.082       .  S
C3365      C3366   1.387       .  A
C3365      H3376   1.084       .  S
C3366      C3367   1.398       .  A
C3366      H3377   1.084       .  S
C3367      C3368   1.422       .  A
C3367      C3372   1.403       .  A
C3368      C3369   1.419       .  A
C3369      C3370   1.405       .  A
C3369      H3378   1.078       .  S
C3370      C3371   1.402       .  A
C3370      H3379   1.083       .  S
C3371      C3372   1.400       .  A
C3372      H3380   1.085       .  S
C3381      C3382   1.402       .  A
C3381      C3386   1.405       .  A
C3382      C3383   1.401       .  A
C3382      H3395   1.083       .  S
C3383      C3384   1.416       .  A
C3383      H3396   1.077       .  S
C3384      C3390   1.435       .  A
C3384      C3385   1.422       .  A
C3385      C3387   1.401       .  A
C3385      C3386   1.408       .  A
C3386      H3397   1.083       .  S
C3387      C3388   1.391       .  A
C3387      H3398   1.084       .  S
C3388      C3389   1.399       .  A
C3388      H3399   1.084       .  S
C3389      C3390   1.425       .  A
C3389      C3394   1.410       .  A
C3390      C3391   1.415       .  A
C3391      C3392   1.398       .  A
C3391      H3400   1.077       .  S
C3392      C3393   1.398       .  A
C3392      H3401   1.084       .  S
C3393      C3394   1.399       .  A
C3394      H3402   1.085       .  S
C3403      C3404   1.402       .  A
C3403      C3408   1.404       .  A
C3404      C3405   1.397       .  A
C3404      H3417   1.082       .  S
C3405      C3406   1.414       .  A
C3405      H3418   1.078       .  S
C3406      C3412   1.432       .  A
C3406      C3407   1.422       .  A
C3407      C3409   1.400       .  A
C3407      C3408   1.408       .  A
C3408      H3419   1.083       .  S
C3409      C3410   1.391       .  A
C3409      H3420   1.084       .  S
C3410      C3411   1.399       .  A
C3410      H3421   1.084       .  S
C3411      C3412   1.423       .  A
C3411      C3416   1.407       .  A
C3412      C3413   1.416       .  A
C3413      C3414   1.397       .  A
C3413      H3422   1.077       .  S
C3414      C3415   1.398       .  A
C3414      H3423   1.083       .  S
C3415      C3416   1.400       .  A
C3416      H3424   1.084       .  S
C3425      C3426   1.400       .  A
C3425      C3430   1.400       .  A
C3426      C3427   1.395       .  A
C3426      H3439   1.084       .  S
C3427      C3428   1.413       .  A
C3427      H3440   1.077       .  S
C3428      C3434   1.432       .  A
C3428      C3429   1.425       .  A
C3429      C3431   1.399       .  A
C3429      C3430   1.410       .  A
C3430      H3441   1.085       .  S
C3431      C3432   1.391       .  A
C3431      H3442   1.084       .  S
C3432      C3433   1.401       .  A
C3432      H3443   1.084       .  S
C3433      C3434   1.421       .  A
C3433      C3438   1.407       .  A
C3434      C3435   1.416       .  A
C3435      C3436   1.398       .  A
C3435      H3444   1.078       .  S
C3436      C3437   1.402       .  A
C3436      H3445   1.082       .  S
C3437      C3438   1.405       .  A
C3438      H3446   1.082       .  S
C3447      C3448   1.399       .  A
C3447      C3452   1.400       .  A
C3448      C3449   1.402       .  A
C3448      H3461   1.083       .  S
C3449      C3450   1.418       .  A
C3449      H3462   1.078       .  S
C3450      C3456   1.434       .  A
C3450      C3451   1.422       .  A
C3451      C3453   1.399       .  A
C3451      C3452   1.404       .  A
C3452      H3463   1.085       .  S
C3453      C3454   1.390       .  A
C3453      H3464   1.084       .  S
C3454      C3455   1.399       .  A
C3454      H3465   1.084       .  S
C3455      C3456   1.423       .  A
C3455      C3460   1.408       .  A
C3456      C3457   1.413       .  A
C3457      C3458   1.399       .  A
C3457      H3466   1.078       .  S
C3458      C3459   1.405       .  A
C3458      H3467   1.081       .  S
C3459      C3460   1.404       .  A
C3460      H3468   1.083       .  S
C3469      C3470   1.402       .  A
C3469      C3474   1.407       .  A
C3470      C3471   1.396       .  A
C3470      H3483   1.081       .  S
C3471      C3472   1.414       .  A
C3471      H3484   1.078       .  S
C3472      C3478   1.432       .  A
C3472      C3473   1.421       .  A
C3473      C3475   1.401       .  A
C3473      C3474   1.410       .  A
C3474      H3485   1.083       .  S
C3475      C3476   1.393       .  A
C3475      H3486   1.084       .  S
C3476      C3477   1.400       .  A
C3476      H3487   1.084       .  S
C3477      C3478   1.424       .  A
C3477      C3482   1.411       .  A
C3478      C3479   1.414       .  A
C3479      C3480   1.394       .  A
C3479      H3488   1.077       .  S
C3480      C3481   1.398       .  A
C3480      H3489   1.084       .  S
C3481      C3482   1.401       .  A
C3482      H3490   1.085       .  S
C3491      C3492   1.404       .  A
C3491      C3496   1.407       .  A
C3492      C3493   1.397       .  A
C3492      H3505   1.081       .  S
C3493      C3494   1.414       .  A
C3493      H3506   1.077       .  S
C3494      C3500   1.434       .  A
C3494      C3495   1.421       .  A
C3495      C3497   1.401       .  A
C3495      C3496   1.411       .  A
C3496      H3507   1.082       .  S
C3497      C3498   1.393       .  A
C3497      H3508   1.084       .  S
C3498      C3499   1.400       .  A
C3498      H3509   1.084       .  S
C3499      C3500   1.424       .  A
C3499      C3504   1.411       .  A
C3500      C3501   1.414       .  A
C3501      C3502   1.395       .  A
C3501      H3510   1.077       .  S
C3502      C3503   1.400       .  A
C3502      H3511   1.084       .  S
C3503      C3504   1.401       .  A
C3504      H3512   1.084       .  S
C3513      C3514   1.402       .  A
C3513      C3518   1.404       .  A
C3514      C3515   1.395       .  A
C3514      H3527   1.081       .  S
C3515      C3516   1.414       .  A
C3515      H3528   1.078       .  S
C3516      C3522   1.431       .  A
C3516      C3517   1.422       .  A
C3517      C3519   1.400       .  A
C3517      C3518   1.409       .  A
C3518      H3529   1.083       .  S
C3519      C3520   1.392       .  A
C3519      H3530   1.084       .  S
C3520      C3521   1.400       .  A
C3520      H3531   1.084       .  S
C3521      C3522   1.423       .  A
C3521      C3526   1.408       .  A
C3522      C3523   1.415       .  A
C3523      C3524   1.395       .  A
C3523      H3532   1.077       .  S
C3524      C3525   1.399       .  A
C3524      H3533   1.083       .  S
C3525      C3526   1.401       .  A
C3526      H3534   1.084       .  S
C3535      C3536   1.400       .  A
C3535      C3540   1.403       .  A
C3536      C3537   1.394       .  A
C3536      H3549   1.084       .  S
C3537      C3538   1.413       .  A
C3537      H3550   1.077       .  S
C3538      C3544   1.434       .  A
C3538      C3539   1.424       .  A
C3539      C3541   1.401       .  A
C3539      C3540   1.414       .  A
C3540      H3551   1.084       .  S
C3541      C3542   1.395       .  A
C3541      H3552   1.084       .  S
C3542      C3543   1.402       .  A
C3542      H3553   1.084       .  S
C3543      C3544   1.421       .  A
C3543      C3548   1.413       .  A
C3544      C3545   1.414       .  A
C3545      C3546   1.397       .  A
C3545      H3554   1.077       .  S
C3546      C3547   1.402       .  A
C3546      H3555   1.081       .  S
C3547      C3548   1.409       .  A
C3548      H3556   1.083       .  S
C3557      C3558   1.399       .  A
C3557      C3562   1.399       .  A
C3558      C3559   1.398       .  A
C3558      H3571   1.084       .  S
C3559      C3560   1.415       .  A
C3559      H3572   1.077       .  S
C3560      C3566   1.434       .  A
C3560      C3561   1.424       .  A
C3561      C3563   1.399       .  A
C3561      C3562   1.409       .  A
C3562      H3573   1.085       .  S
C3563      C3564   1.391       .  A
C3563      H3574   1.084       .  S
C3564      C3565   1.400       .  A
C3564      H3575   1.084       .  S
C3565      C3566   1.422       .  A
C3565      C3570   1.409       .  A
C3566      C3567   1.415       .  A
C3567      C3568   1.399       .  A
C3567      H3576   1.077       .  S
C3568      C3569   1.403       .  A
C3568      H3577   1.082       .  S
C3569      C3570   1.405       .  A
C3570      H3578   1.083       .  S
C3579      C3580   1.398       .  A
C3579      C3584   1.399       .  A
C3580      C3581   1.397       .  A
C3580      H3593   1.083       .  S
C3581      C3582   1.415       .  A
C3581      H3594   1.077       .  S
C3582      C3588   1.432       .  A
C3582      C3583   1.424       .  A
C3583      C3585   1.399       .  A
C3583      C3584   1.406       .  A
C3584      H3595   1.084       .  S
C3585      C3586   1.390       .  A
C3585      H3596   1.084       .  S
C3586      C3587   1.400       .  A
C3586      H3597   1.084       .  S
C3587      C3588   1.422       .  A
C3587      C3592   1.406       .  A
C3588      C3589   1.415       .  A
C3589      C3590   1.398       .  A
C3589      H3598   1.078       .  S
C3590      C3591   1.402       .  A
C3590      H3599   1.082       .  S
C3591      C3592   1.404       .  A
C3592      H3600   1.083       .  S
C3601      C3602   1.401       .  A
C3601      C3606   1.402       .  A
C3602      C3603   1.406       .  A
C3602      H3615   1.083       .  S
C3603      C3604   1.420       .  A
C3603      H3616   1.078       .  S
C3604      C3610   1.438       .  A
C3604      C3605   1.421       .  A
C3605      C3607   1.399       .  A
C3605      C3606   1.405       .  A
C3606      H3617   1.085       .  S
C3607      C3608   1.390       .  A
C3607      H3618   1.084       .  S
C3608      C3609   1.399       .  A
C3608      H3619   1.084       .  S
C3609      C3610   1.424       .  A
C3609      C3614   1.410       .  A
C3610      C3611   1.414       .  A
C3611      C3612   1.403       .  A
C3611      H3620   1.078       .  S
C3612      C3613   1.407       .  A
C3612      H3621   1.081       .  S
C3613      C3614   1.405       .  A
C3614      H3622   1.082       .  S
C3623      C3624   1.400       .  A
C3623      C3628   1.400       .  A
C3624      C3625   1.404       .  A
C3624      H3637   1.083       .  S
C3625      C3626   1.419       .  A
C3625      H3638   1.078       .  S
C3626      C3632   1.435       .  A
C3626      C3627   1.422       .  A
C3627      C3629   1.399       .  A
C3627      C3628   1.403       .  A
C3628      H3639   1.085       .  S
C3629      C3630   1.388       .  A
C3629      H3640   1.084       .  S
C3630      C3631   1.399       .  A
C3630      H3641   1.084       .  S
C3631      C3632   1.423       .  A
C3631      C3636   1.406       .  A
C3632      C3633   1.414       .  A
C3633      C3634   1.402       .  A
C3633      H3642   1.078       .  S
C3634      C3635   1.405       .  A
C3634      H3643   1.081       .  S
C3635      C3636   1.403       .  A
C3636      H3644   1.082       .  S
C3645      C3646   1.404       .  A
C3645      C3650   1.404       .  A
C3646      C3647   1.399       .  A
C3646      H3659   1.081       .  S
C3647      C3648   1.414       .  A
C3647      H3660   1.077       .  S
C3648      C3654   1.433       .  A
C3648      C3649   1.422       .  A
C3649      C3651   1.400       .  A
C3649      C3650   1.407       .  A
C3650      H3661   1.082       .  S
C3651      C3652   1.390       .  A
C3651      H3662   1.084       .  S
C3652      C3653   1.399       .  A
C3652      H3663   1.084       .  S
C3653      C3654   1.423       .  A
C3653      C3658   1.405       .  A
C3654      C3655   1.417       .  A
C3655      C3656   1.400       .  A
C3655      H3664   1.077       .  S
C3656      C3657   1.398       .  A
C3656      H3665   1.083       .  S
C3657      C3658   1.399       .  A
C3658      H3666   1.084       .  S
C3667      C3668   1.397       .  A
C3667      C3672   1.400       .  A
C3668      C3669   1.394       .  A
C3668      H3681   1.084       .  S
C3669      C3670   1.414       .  A
C3669      H3682   1.076       .  S
C3670      C3676   1.431       .  A
C3670      C3671   1.424       .  A
C3671      C3673   1.400       .  A
C3671      C3672   1.410       .  A
C3672      H3683   1.084       .  S
C3673      C3674   1.393       .  A
C3673      H3684   1.084       .  S
C3674      C3675   1.401       .  A
C3674      H3685   1.084       .  S
C3675      C3676   1.421       .  A
C3675      C3680   1.409       .  A
C3676      C3677   1.414       .  A
C3677      C3678   1.396       .  A
C3677      H3686   1.076       .  S
C3678      C3679   1.402       .  A
C3678      H3687   1.081       .  S
C3679      C3680   1.407       .  A
C3680      H3688   1.082       .  S
C3689      C3690   1.399       .  A
C3689      C3694   1.398       .  A
C3690      C3691   1.401       .  A
C3690      H3703   1.083       .  S
C3691      C3692   1.418       .  A
C3691      H3704   1.078       .  S
C3692      C3698   1.432       .  A
C3692      C3693   1.422       .  A
C3693      C3695   1.398       .  A
C3693      C3694   1.401       .  A
C3694      H3705   1.085       .  S
C3695      C3696   1.387       .  A
C3695      H3706   1.084       .  S
C3696      C3697   1.398       .  A
C3696      H3707   1.084       .  S
C3697      C3698   1.423       .  A
C3697      C3702   1.403       .  A
C3698      C3699   1.414       .  A
C3699      C3700   1.399       .  A
C3699      H3708   1.078       .  S
C3700      C3701   1.404       .  A
C3700      H3709   1.082       .  S
C3701      C3702   1.401       .  A
C3702      H3710   1.083       .  S
C3711      C3712   1.402       .  A
C3711      C3716   1.407       .  A
C3712      C3713   1.396       .  A
C3712      H3725   1.082       .  S
C3713      C3714   1.414       .  A
C3713      H3726   1.078       .  S
C3714      C3720   1.431       .  A
C3714      C3715   1.421       .  A
C3715      C3717   1.401       .  A
C3715      C3716   1.409       .  A
C3716      H3727   1.083       .  S
C3717      C3718   1.393       .  A
C3717      H3728   1.084       .  S
C3718      C3719   1.400       .  A
C3718      H3729   1.084       .  S
C3719      C3720   1.424       .  A
C3719      C3724   1.410       .  A
C3720      C3721   1.414       .  A
C3721      C3722   1.395       .  A
C3721      H3730   1.077       .  S
C3722      C3723   1.398       .  A
C3722      H3731   1.084       .  S
C3723      C3724   1.401       .  A
C3724      H3732   1.085       .  S
C3733      C3734   1.401       .  A
C3733      C3738   1.402       .  A
C3734      C3735   1.398       .  A
C3734      H3747   1.082       .  S
C3735      C3736   1.415       .  A
C3735      H3748   1.077       .  S
C3736      C3742   1.431       .  A
C3736      C3737   1.422       .  A
C3737      C3739   1.399       .  A
C3737      C3738   1.404       .  A
C3738      H3749   1.083       .  S
C3739      C3740   1.389       .  A
C3739      H3750   1.084       .  S
C3740      C3741   1.399       .  A
C3740      H3751   1.084       .  S
C3741      C3742   1.422       .  A
C3741      C3746   1.403       .  A
C3742      C3743   1.416       .  A
C3743      C3744   1.398       .  A
C3743      H3752   1.077       .  S
C3744      C3745   1.399       .  A
C3744      H3753   1.082       .  S
C3745      C3746   1.400       .  A
C3746      H3754   1.084       .  S
C3755      C3756   1.399       .  A
C3755      C3760   1.402       .  A
C3756      C3757   1.393       .  A
C3756      H3769   1.084       .  S
C3757      C3758   1.412       .  A
C3757      H3770   1.077       .  S
C3758      C3764   1.431       .  A
C3758      C3759   1.424       .  A
C3759      C3761   1.400       .  A
C3759      C3760   1.413       .  A
C3760      H3771   1.084       .  S
C3761      C3762   1.394       .  A
C3761      H3772   1.084       .  S
C3762      C3763   1.402       .  A
C3762      H3773   1.084       .  S
C3763      C3764   1.420       .  A
C3763      C3768   1.410       .  A
C3764      C3765   1.414       .  A
C3765      C3766   1.396       .  A
C3765      H3774   1.077       .  S
C3766      C3767   1.402       .  A
C3766      H3775   1.081       .  S
C3767      C3768   1.408       .  A
C3768      H3776   1.082       .  S
C3777      C3778   1.406       .  A
C3777      C3782   1.402       .  A
C3778      C3779   1.403       .  A
C3778      H3791   1.082       .  S
C3779      C3780   1.415       .  A
C3779      H3792   1.078       .  S
C3780      C3786   1.437       .  A
C3780      C3781   1.423       .  A
C3781      C3783   1.399       .  A
C3781      C3782   1.406       .  A
C3782      H3793   1.083       .  S
C3783      C3784   1.388       .  A
C3783      H3794   1.084       .  S
C3784      C3785   1.399       .  A
C3784      H3795   1.084       .  S
C3785      C3786   1.422       .  A
C3785      C3790   1.403       .  A
C3786      C3787   1.419       .  A
C3787      C3788   1.406       .  A
C3787      H3796   1.078       .  S
C3788      C3789   1.400       .  A
C3788      H3797   1.083       .  S
C3789      C3790   1.401       .  A
C3790      H3798   1.085       .  S
C3799      C3800   1.401       .  A
C3799      C3804   1.406       .  A
C3800      C3801   1.397       .  A
C3800      H3813   1.082       .  S
C3801      C3802   1.415       .  A
C3801      H3814   1.077       .  S
C3802      C3808   1.432       .  A
C3802      C3803   1.422       .  A
C3803      C3805   1.401       .  A
C3803      C3804   1.409       .  A
C3804      H3815   1.083       .  S
C3805      C3806   1.392       .  A
C3805      H3816   1.084       .  S
C3806      C3807   1.400       .  A
C3806      H3817   1.084       .  S
C3807      C3808   1.423       .  A
C3807      C3812   1.409       .  A
C3808      C3809   1.414       .  A
C3809      C3810   1.395       .  A
C3809      H3818   1.077       .  S
C3810      C3811   1.399       .  A
C3810      H3819   1.083       .  S
C3811      C3812   1.402       .  A
C3812      H3820   1.084       .  S
C3821      C3822   1.400       .  A
C3821      C3826   1.401       .  A
C3822      C3823   1.396       .  A
C3822      H3835   1.084       .  S
C3823      C3824   1.414       .  A
C3823      H3836   1.077       .  S
C3824      C3830   1.433       .  A
C3824      C3825   1.424       .  A
C3825      C3827   1.399       .  A
C3825      C3826   1.410       .  A
C3826      H3837   1.084       .  S
C3827      C3828   1.392       .  A
C3827      H3838   1.084       .  S
C3828      C3829   1.401       .  A
C3828      H3839   1.084       .  S
C3829      C3830   1.421       .  A
C3829      C3834   1.410       .  A
C3830      C3831   1.415       .  A
C3831      C3832   1.398       .  A
C3831      H3840   1.077       .  S
C3832      C3833   1.403       .  A
C3832      H3841   1.081       .  S
C3833      C3834   1.406       .  A
C3834      H3842   1.082       .  S
C3843      C3844   1.399       .  A
C3843      C3848   1.402       .  A
C3844      C3845   1.403       .  A
C3844      H3857   1.083       .  S
C3845      C3846   1.418       .  A
C3845      H3858   1.078       .  S
C3846      C3852   1.435       .  A
C3846      C3847   1.422       .  A
C3847      C3849   1.399       .  A
C3847      C3848   1.404       .  A
C3848      H3859   1.085       .  S
C3849      C3850   1.389       .  A
C3849      H3860   1.084       .  S
C3850      C3851   1.399       .  A
C3850      H3861   1.084       .  S
C3851      C3852   1.423       .  A
C3851      C3856   1.407       .  A
C3852      C3853   1.414       .  A
C3853      C3854   1.400       .  A
C3853      H3862   1.078       .  S
C3854      C3855   1.404       .  A
C3854      H3863   1.081       .  S
C3855      C3856   1.404       .  A
C3856      H3864   1.083       .  S
C3865      C3866   1.403       .  A
C3865      C3870   1.408       .  A
C3866      C3867   1.397       .  A
C3866      H3879   1.081       .  S
C3867      C3868   1.414       .  A
C3867      H3880   1.077       .  S
C3868      C3874   1.433       .  A
C3868      C3869   1.421       .  A
C3869      C3871   1.402       .  A
C3869      C3870   1.411       .  A
C3870      H3881   1.082       .  S
C3871      C3872   1.394       .  A
C3871      H3882   1.084       .  S
C3872      C3873   1.400       .  A
C3872      H3883   1.084       .  S
C3873      C3874   1.425       .  A
C3873      C3878   1.413       .  A
C3874      C3875   1.414       .  A
C3875      C3876   1.395       .  A
C3875      H3884   1.077       .  S
C3876      C3877   1.399       .  A
C3876      H3885   1.084       .  S
C3877      C3878   1.401       .  A
C3878      H3886   1.084       .  S
C3887      C3888   1.398       .  A
C3887      C3892   1.402       .  A
C3888      C3889   1.400       .  A
C3888      H3901   1.083       .  S
C3889      C3890   1.418       .  A
C3889      H3902   1.078       .  S
C3890      C3896   1.434       .  A
C3890      C3891   1.422       .  A
C3891      C3893   1.400       .  A
C3891      C3892   1.406       .  A
C3892      H3903   1.085       .  S
C3893      C3894   1.391       .  A
C3893      H3904   1.084       .  S
C3894      C3895   1.400       .  A
C3894      H3905   1.084       .  S
C3895      C3896   1.423       .  A
C3895      C3900   1.410       .  A
C3896      C3897   1.413       .  A
C3897      C3898   1.398       .  A
C3897      H3906   1.078       .  S
C3898      C3899   1.404       .  A
C3898      H3907   1.081       .  S
C3899      C3900   1.406       .  A
C3900      H3908   1.083       .  S
C3909      C3910   1.400       .  A
C3909      C3914   1.399       .  A
C3910      C3911   1.401       .  A
C3910      H3923   1.083       .  S
C3911      C3912   1.417       .  A
C3911      H3924   1.078       .  S
C3912      C3918   1.435       .  A
C3912      C3913   1.424       .  A
C3913      C3915   1.398       .  A
C3913      C3914   1.405       .  A
C3914      H3925   1.084       .  S
C3915      C3916   1.389       .  A
C3915      H3926   1.084       .  S
C3916      C3917   1.399       .  A
C3916      H3927   1.084       .  S
C3917      C3918   1.422       .  A
C3917      C3922   1.406       .  A
C3918      C3919   1.416       .  A
C3919      C3920   1.402       .  A
C3919      H3928   1.078       .  S
C3920      C3921   1.403       .  A
C3920      H3929   1.082       .  S
C3921      C3922   1.403       .  A
C3922      H3930   1.083       .  S
C3931      C3932   1.402       .  A
C3931      C3936   1.406       .  A
C3932      C3933   1.399       .  A
C3932      H3945   1.082       .  S
C3933      C3934   1.415       .  A
C3933      H3946   1.077       .  S
C3934      C3940   1.433       .  A
C3934      C3935   1.421       .  A
C3935      C3937   1.401       .  A
C3935      C3936   1.409       .  A
C3936      H3947   1.082       .  S
C3937      C3938   1.392       .  A
C3937      H3948   1.084       .  S
C3938      C3939   1.399       .  A
C3938      H3949   1.084       .  S
C3939      C3940   1.425       .  A
C3939      C3944   1.410       .  A
C3940      C3941   1.414       .  A
C3941      C3942   1.396       .  A
C3941      H3950   1.077       .  S
C3942      C3943   1.399       .  A
C3942      H3951   1.084       .  S
C3943      C3944   1.400       .  A
C3944      H3952   1.084       .  S
C3953      C3954   1.398       .  A
C3953      C3958   1.401       .  A
C3954      C3955   1.394       .  A
C3954      H3967   1.084       .  S
C3955      C3956   1.414       .  A
C3955      H3968   1.078       .  S
C3956      C3962   1.432       .  A
C3956      C3957   1.424       .  A
C3957      C3959   1.400       .  A
C3957      C3958   1.410       .  A
C3958      H3969   1.085       .  S
C3959      C3960   1.393       .  A
C3959      H3970   1.084       .  S
C3960      C3961   1.401       .  A
C3960      H3971   1.084       .  S
C3961      C3962   1.421       .  A
C3961      C3966   1.410       .  A
C3962      C3963   1.414       .  A
C3963      C3964   1.396       .  A
C3963      H3972   1.077       .  S
C3964      C3965   1.402       .  A
C3964      H3973   1.081       .  S
C3965      C3966   1.407       .  A
C3966      H3974   1.082       .  S
C3975      C3976   1.401       .  A
C3975      C3980   1.403       .  A
C3976      C3977   1.397       .  A
C3976      H3989   1.084       .  S
C3977      C3978   1.413       .  A
C3977      H3990   1.077       .  S
C3978      C3984   1.436       .  A
C3978      C3979   1.425       .  A
C3979      C3981   1.400       .  A
C3979      C3980   1.415       .  A
C3980      H3991   1.084       .  S
C3981      C3982   1.394       .  A
C3981      H3992   1.084       .  S
C3982      C3983   1.402       .  A
C3982      H3993   1.084       .  S
C3983      C3984   1.421       .  A
C3983      C3988   1.411       .  A
C3984      C3985   1.416       .  A
C3985      C3986   1.400       .  A
C3985      H3994   1.077       .  S
C3986      C3987   1.403       .  A
C3986      H3995   1.082       .  S
C3987      C3988   1.408       .  A
C3988      H3996   1.082       .  S
C3997      C3998   1.403       .  A
C3997      C4002   1.403       .  A
C3998      C3999   1.400       .  A
C3998      H4011   1.082       .  S
C3999      C4000   1.415       .  A
C3999      H4012   1.078       .  S
C4000      C4006   1.434       .  A
C4000      C4001   1.422       .  A
C4001      C4003   1.400       .  A
C4001      C4002   1.407       .  A
C4002      H4013   1.083       .  S
C4003      C4004   1.390       .  A
C4003      H4014   1.084       .  S
C4004      C4005   1.399       .  A
C4004      H4015   1.084       .  S
C4005      C4006   1.423       .  A
C4005      C4010   1.406       .  A
C4006      C4007   1.416       .  A
C4007      C4008   1.399       .  A
C4007      H4016   1.078       .  S
C4008      C4009   1.401       .  A
C4008      H4017   1.083       .  S
C4009      C4010   1.400       .  A
C4010      H4018   1.084       .  S
C4019      C4020   1.406       .  A
C4019      C4024   1.404       .  A
C4020      C4021   1.402       .  A
C4020      H4033   1.081       .  S
C4021      C4022   1.414       .  A
C4021      H4034   1.078       .  S
C4022      C4028   1.437       .  A
C4022      C4023   1.423       .  A
C4023      C4025   1.399       .  A
C4023      C4024   1.409       .  A
C4024      H4035   1.082       .  S
C4025      C4026   1.389       .  A
C4025      H4036   1.084       .  S
C4026      C4027   1.399       .  A
C4026      H4037   1.084       .  S
C4027      C4028   1.422       .  A
C4027      C4032   1.404       .  A
C4028      C4029   1.419       .  A
C4029      C4030   1.405       .  A
C4029      H4038   1.078       .  S
C4030      C4031   1.401       .  A
C4030      H4039   1.083       .  S
C4031      C4032   1.402       .  A
C4032      H4040   1.085       .  S
C4041      C4042   1.402       .  A
C4041      C4046   1.403       .  A
C4042      C4043   1.400       .  A
C4042      H4055   1.082       .  S
C4043      C4044   1.416       .  A
C4043      H4056   1.077       .  S
C4044      C4050   1.433       .  A
C4044      C4045   1.422       .  A
C4045      C4047   1.399       .  A
C4045      C4046   1.405       .  A
C4046      H4057   1.083       .  S
C4047      C4048   1.389       .  A
C4047      H4058   1.084       .  S
C4048      C4049   1.399       .  A
C4048      H4059   1.084       .  S
C4049      C4050   1.422       .  A
C4049      C4054   1.405       .  A
C4050      C4051   1.416       .  A
C4051      C4052   1.400       .  A
C4051      H4060   1.077       .  S
C4052      C4053   1.401       .  A
C4052      H4061   1.082       .  S
C4053      C4054   1.401       .  A
C4054      H4062   1.083       .  S
C4063      C4064   1.402       .  A
C4063      C4068   1.403       .  A
C4064      C4065   1.398       .  A
C4064      H4077   1.084       .  S
C4065      C4066   1.414       .  A
C4065      H4078   1.078       .  S
C4066      C4072   1.437       .  A
C4066      C4067   1.425       .  A
C4067      C4069   1.400       .  A
C4067      C4068   1.414       .  A
C4068      H4079   1.084       .  S
C4069      C4070   1.394       .  A
C4069      H4080   1.084       .  S
C4070      C4071   1.402       .  A
C4070      H4081   1.084       .  S
C4071      C4072   1.421       .  A
C4071      C4076   1.413       .  A
C4072      C4073   1.415       .  A
C4073      C4074   1.401       .  A
C4073      H4082   1.078       .  S
C4074      C4075   1.404       .  A
C4074      H4083   1.081       .  S
C4075      C4076   1.408       .  A
C4076      H4084   1.082       .  S
C4085      C4086   1.401       .  A
C4085      C4090   1.401       .  A
C4086      C4087   1.405       .  A
C4086      H4099   1.083       .  S
C4087      C4088   1.419       .  A
C4087      H4100   1.078       .  S
C4088      C4094   1.438       .  A
C4088      C4089   1.422       .  A
C4089      C4091   1.399       .  A
C4089      C4090   1.406       .  A
C4090      H4101   1.085       .  S
C4091      C4092   1.389       .  A
C4091      H4102   1.084       .  S
C4092      C4093   1.399       .  A
C4092      H4103   1.084       .  S
C4093      C4094   1.423       .  A
C4093      C4098   1.407       .  A
C4094      C4095   1.415       .  A
C4095      C4096   1.404       .  A
C4095      H4104   1.078       .  S
C4096      C4097   1.406       .  A
C4096      H4105   1.081       .  S
C4097      C4098   1.404       .  A
C4098      H4106   1.082       .  S
C4107      C4108   1.404       .  A
C4107      C4112   1.403       .  A
C4108      C4109   1.400       .  A
C4108      H4121   1.081       .  S
C4109      C4110   1.414       .  A
C4109      H4122   1.078       .  S
C4110      C4116   1.434       .  A
C4110      C4111   1.422       .  A
C4111      C4113   1.399       .  A
C4111      C4112   1.406       .  A
C4112      H4123   1.083       .  S
C4113      C4114   1.389       .  A
C4113      H4124   1.084       .  S
C4114      C4115   1.399       .  A
C4114      H4125   1.084       .  S
C4115      C4116   1.422       .  A
C4115      C4120   1.404       .  A
C4116      C4117   1.418       .  A
C4117      C4118   1.402       .  A
C4117      H4126   1.078       .  S
C4118      C4119   1.400       .  A
C4118      H4127   1.083       .  S
C4119      C4120   1.399       .  A
C4120      H4128   1.085       .  S
C4129      C4130   1.403       .  A
C4129      C4134   1.405       .  A
C4130      C4131   1.399       .  A
C4130      H4143   1.082       .  S
C4131      C4132   1.415       .  A
C4131      H4144   1.078       .  S
C4132      C4138   1.435       .  A
C4132      C4133   1.422       .  A
C4133      C4135   1.401       .  A
C4133      C4134   1.410       .  A
C4134      H4145   1.083       .  S
C4135      C4136   1.392       .  A
C4135      H4146   1.084       .  S
C4136      C4137   1.400       .  A
C4136      H4147   1.084       .  S
C4137      C4138   1.424       .  A
C4137      C4142   1.411       .  A
C4138      C4139   1.414       .  A
C4139      C4140   1.398       .  A
C4139      H4148   1.078       .  S
C4140      C4141   1.401       .  A
C4140      H4149   1.083       .  S
C4141      C4142   1.401       .  A
C4142      H4150   1.085       .  S
C4151      C4152   1.398       .  A
C4151      C4156   1.398       .  A
C4152      C4153   1.398       .  A
C4152      H4165   1.083       .  S
C4153      C4154   1.417       .  A
C4153      H4166   1.077       .  S
C4154      C4160   1.432       .  A
C4154      C4155   1.423       .  A
C4155      C4157   1.399       .  A
C4155      C4156   1.405       .  A
C4156      H4167   1.084       .  S
C4157      C4158   1.390       .  A
C4157      H4168   1.084       .  S
C4158      C4159   1.400       .  A
C4158      H4169   1.084       .  S
C4159      C4160   1.422       .  A
C4159      C4164   1.408       .  A
C4160      C4161   1.414       .  A
C4161      C4162   1.398       .  A
C4161      H4170   1.078       .  S
C4162      C4163   1.404       .  A
C4162      H4171   1.081       .  S
C4163      C4164   1.404       .  A
C4164      H4172   1.082       .  S
C4173      C4174   1.407       .  A
C4173      C4178   1.404       .  A
C4174      C4175   1.405       .  A
C4174      H4187   1.081       .  S
C4175      C4176   1.415       .  A
C4175      H4188   1.078       .  S
C4176      C4182   1.439       .  A
C4176      C4177   1.424       .  A
C4177      C4179   1.399       .  A
C4177      C4178   1.409       .  A
C4178      H4189   1.082       .  S
C4179      C4180   1.389       .  A
C4179      H4190   1.084       .  S
C4180      C4181   1.399       .  A
C4180      H4191   1.084       .  S
C4181      C4182   1.422       .  A
C4181      C4186   1.405       .  A
C4182      C4183   1.420       .  A
C4183      C4184   1.408       .  A
C4183      H4192   1.078       .  S
C4184      C4185   1.401       .  A
C4184      H4193   1.083       .  S
C4185      C4186   1.401       .  A
C4186      H4194   1.085       .  S
C4195      C4196   1.405       .  A
C4195      C4200   1.404       .  A
C4196      C4197   1.401       .  A
C4196      H4209   1.081       .  S
C4197      C4198   1.414       .  A
C4197      H4210   1.078       .  S
C4198      C4204   1.435       .  A
C4198      C4199   1.423       .  A
C4199      C4201   1.400       .  A
C4199      C4200   1.408       .  A
C4200      H4211   1.083       .  S
C4201      C4202   1.390       .  A
C4201      H4212   1.084       .  S
C4202      C4203   1.400       .  A
C4202      H4213   1.084       .  S
C4203      C4204   1.422       .  A
C4203      C4208   1.406       .  A
C4204      C4205   1.418       .  A
C4205      C4206   1.403       .  A
C4205      H4214   1.078       .  S
C4206      C4207   1.400       .  A
C4206      H4215   1.083       .  S
C4207      C4208   1.402       .  A
C4208      H4216   1.085       .  S
C4217      C4218   1.402       .  A
C4217      C4222   1.405       .  A
C4218      C4219   1.398       .  A
C4218      H4231   1.082       .  S
C4219      C4220   1.415       .  A
C4219      H4232   1.076       .  S
C4220      C4226   1.433       .  A
C4220      C4221   1.422       .  A
C4221      C4223   1.400       .  A
C4221      C4222   1.408       .  A
C4222      H4233   1.083       .  S
C4223      C4224   1.391       .  A
C4223      H4234   1.084       .  S
C4224      C4225   1.399       .  A
C4224      H4235   1.084       .  S
C4225      C4226   1.423       .  A
C4225      C4230   1.407       .  A
C4226      C4227   1.416       .  A
C4227      C4228   1.397       .  A
C4227      H4236   1.076       .  S
C4228      C4229   1.399       .  A
C4228      H4237   1.083       .  S
C4229      C4230   1.401       .  A
C4230      H4238   1.084       .  S
C4239      C4240   1.400       .  A
C4239      C4244   1.402       .  A
C4240      C4241   1.403       .  A
C4240      H4253   1.083       .  S
C4241      C4242   1.418       .  A
C4241      H4254   1.078       .  S
C4242      C4248   1.435       .  A
C4242      C4243   1.421       .  A
C4243      C4245   1.399       .  A
C4243      C4244   1.404       .  A
C4244      H4255   1.085       .  S
C4245      C4246   1.389       .  A
C4245      H4256   1.084       .  S
C4246      C4247   1.399       .  A
C4246      H4257   1.084       .  S
C4247      C4248   1.423       .  A
C4247      C4252   1.407       .  A
C4248      C4249   1.414       .  A
C4249      C4250   1.400       .  A
C4249      H4258   1.078       .  S
C4250      C4251   1.405       .  A
C4250      H4259   1.081       .  S
C4251      C4252   1.404       .  A
C4252      H4260   1.082       .  S
C4261      C4262   1.400       .  A
C4261      C4266   1.402       .  A
C4262      C4263   1.404       .  A
C4262      H4275   1.083       .  S
C4263      C4264   1.419       .  A
C4263      H4276   1.078       .  S
C4264      C4270   1.436       .  A
C4264      C4265   1.421       .  A
C4265      C4267   1.399       .  A
C4265      C4266   1.404       .  A
C4266      H4277   1.085       .  S
C4267      C4268   1.389       .  A
C4267      H4278   1.084       .  S
C4268      C4269   1.399       .  A
C4268      H4279   1.084       .  S
C4269      C4270   1.423       .  A
C4269      C4274   1.408       .  A
C4270      C4271   1.414       .  A
C4271      C4272   1.402       .  A
C4271      H4280   1.078       .  S
C4272      C4273   1.405       .  A
C4272      H4281   1.081       .  S
C4273      C4274   1.405       .  A
C4274      H4282   1.082       .  S
C4283      C4284   1.404       .  A
C4283      C4288   1.407       .  A
C4284      C4285   1.400       .  A
C4284      H4297   1.081       .  S
C4285      C4286   1.415       .  A
C4285      H4298   1.078       .  S
C4286      C4292   1.437       .  A
C4286      C4287   1.421       .  A
C4287      C4289   1.402       .  A
C4287      C4288   1.413       .  A
C4288      H4299   1.083       .  S
C4289      C4290   1.394       .  A
C4289      H4300   1.084       .  S
C4290      C4291   1.400       .  A
C4290      H4301   1.084       .  S
C4291      C4292   1.425       .  A
C4291      C4296   1.415       .  A
C4292      C4293   1.414       .  A
C4293      C4294   1.397       .  A
C4293      H4302   1.078       .  S
C4294      C4295   1.401       .  A
C4294      H4303   1.084       .  S
C4295      C4296   1.403       .  A
C4296      H4304   1.084       .  S
C4305      C4306   1.404       .  A
C4305      C4310   1.410       .  A
C4306      C4307   1.397       .  A
C4306      H4319   1.080       .  S
C4307      C4308   1.413       .  A
C4307      H4320   1.077       .  S
C4308      C4314   1.436       .  A
C4308      C4309   1.422       .  A
C4309      C4311   1.403       .  A
C4309      C4310   1.416       .  A
C4310      H4321   1.083       .  S
C4311      C4312   1.396       .  A
C4311      H4322   1.084       .  S
C4312      C4313   1.401       .  A
C4312      H4323   1.084       .  S
C4313      C4314   1.424       .  A
C4313      C4318   1.417       .  A
C4314      C4315   1.414       .  A
C4315      C4316   1.395       .  A
C4315      H4324   1.077       .  S
C4316      C4317   1.400       .  A
C4316      H4325   1.084       .  S
C4317      C4318   1.405       .  A
C4318      H4326   1.084       .  S
C4327      C4328   1.403       .  A
C4327      C4332   1.407       .  A
C4328      C4329   1.398       .  A
C4328      H4341   1.081       .  S
C4329      C4330   1.414       .  A
C4329      H4342   1.077       .  S
C4330      C4336   1.435       .  A
C4330      C4331   1.423       .  A
C4331      C4333   1.401       .  A
C4331      C4332   1.412       .  A
C4332      H4343   1.083       .  S
C4333      C4334   1.393       .  A
C4333      H4344   1.084       .  S
C4334      C4335   1.400       .  A
C4334      H4345   1.084       .  S
C4335      C4336   1.423       .  A
C4335      C4340   1.409       .  A
C4336      C4337   1.417       .  A
C4337      C4338   1.398       .  A
C4337      H4346   1.077       .  S
C4338      C4339   1.398       .  A
C4338      H4347   1.083       .  S
C4339      C4340   1.402       .  A
C4340      H4348   1.084       .  S
C4349      C4350   1.401       .  A
C4349      C4354   1.402       .  A
C4350      C4351   1.406       .  A
C4350      H4363   1.083       .  S
C4351      C4352   1.419       .  A
C4351      H4364   1.078       .  S
C4352      C4358   1.437       .  A
C4352      C4353   1.422       .  A
C4353      C4355   1.399       .  A
C4353      C4354   1.404       .  A
C4354      H4365   1.085       .  S
C4355      C4356   1.388       .  A
C4355      H4366   1.084       .  S
C4356      C4357   1.399       .  A
C4356      H4367   1.084       .  S
C4357      C4358   1.423       .  A
C4357      C4362   1.407       .  A
C4358      C4359   1.415       .  A
C4359      C4360   1.403       .  A
C4359      H4368   1.078       .  S
C4360      C4361   1.406       .  A
C4360      H4369   1.081       .  S
C4361      C4362   1.404       .  A
C4362      H4370   1.082       .  S
C4371      C4372   1.400       .  A
C4371      C4376   1.401       .  A
C4372      C4373   1.407       .  A
C4372      H4385   1.083       .  S
C4373      C4374   1.420       .  A
C4373      H4386   1.078       .  S
C4374      C4380   1.437       .  A
C4374      C4375   1.421       .  A
C4375      C4377   1.399       .  A
C4375      C4376   1.403       .  A
C4376      H4387   1.085       .  S
C4377      C4378   1.388       .  A
C4377      H4388   1.084       .  S
C4378      C4379   1.399       .  A
C4378      H4389   1.084       .  S
C4379      C4380   1.423       .  A
C4379      C4384   1.408       .  A
C4380      C4381   1.414       .  A
C4381      C4382   1.403       .  A
C4381      H4390   1.078       .  S
C4382      C4383   1.406       .  A
C4382      H4391   1.081       .  S
C4383      C4384   1.404       .  A
C4384      H4392   1.082       .  S
C4393      C4394   1.404       .  A
C4393      C4398   1.403       .  A
C4394      C4395   1.398       .  A
C4394      H4407   1.081       .  S
C4395      C4396   1.413       .  A
C4395      H4408   1.077       .  S
C4396      C4402   1.433       .  A
C4396      C4397   1.423       .  A
C4397      C4399   1.399       .  A
C4397      C4398   1.408       .  A
C4398      H4409   1.083       .  S
C4399      C4400   1.390       .  A
C4399      H4410   1.084       .  S
C4400      C4401   1.399       .  A
C4400      H4411   1.084       .  S
C4401      C4402   1.422       .  A
C4401      C4406   1.405       .  A
C4402      C4403   1.418       .  A
C4403      C4404   1.400       .  A
C4403      H4412   1.077       .  S
C4404      C4405   1.397       .  A
C4404      H4413   1.083       .  S
C4405      C4406   1.399       .  A
C4406      H4414   1.085       .  S
C4415      C4416   1.403       .  A
C4415      C4420   1.402       .  A
C4416      C4417   1.400       .  A
C4416      H4429   1.082       .  S
C4417      C4418   1.415       .  A
C4417      H4430   1.077       .  S
C4418      C4424   1.434       .  A
C4418      C4419   1.423       .  A
C4419      C4421   1.399       .  A
C4419      C4420   1.406       .  A
C4420      H4431   1.083       .  S
C4421      C4422   1.389       .  A
C4421      H4432   1.084       .  S
C4422      C4423   1.399       .  A
C4422      H4433   1.084       .  S
C4423      C4424   1.423       .  A
C4423      C4428   1.405       .  A
C4424      C4425   1.417       .  A
C4425      C4426   1.400       .  A
C4425      H4434   1.077       .  S
C4426      C4427   1.400       .  A
C4426      H4435   1.083       .  S
C4427      C4428   1.400       .  A
C4428      H4436   1.084       .  S
C4437      C4438   1.397       .  A
C4437      C4442   1.400       .  A
C4438      C4439   1.396       .  A
C4438      H4451   1.084       .  S
C4439      C4440   1.415       .  A
C4439      H4452   1.076       .  S
C4440      C4446   1.432       .  A
C4440      C4441   1.424       .  A
C4441      C4443   1.400       .  A
C4441      C4442   1.409       .  A
C4442      H4453   1.085       .  S
C4443      C4444   1.392       .  A
C4443      H4454   1.084       .  S
C4444      C4445   1.401       .  A
C4444      H4455   1.084       .  S
C4445      C4446   1.422       .  A
C4445      C4450   1.409       .  A
C4446      C4447   1.414       .  A
C4447      C4448   1.397       .  A
C4447      H4456   1.076       .  S
C4448      C4449   1.402       .  A
C4448      H4457   1.082       .  S
C4449      C4450   1.406       .  A
C4450      H4458   1.083       .  S
C4459      C4460   1.399       .  A
C4459      C4464   1.401       .  A
C4460      C4461   1.395       .  A
C4460      H4473   1.084       .  S
C4461      C4462   1.414       .  A
C4461      H4474   1.077       .  S
C4462      C4468   1.433       .  A
C4462      C4463   1.425       .  A
C4463      C4465   1.400       .  A
C4463      C4464   1.411       .  A
C4464      H4475   1.085       .  S
C4465      C4466   1.393       .  A
C4465      H4476   1.084       .  S
C4466      C4467   1.401       .  A
C4466      H4477   1.084       .  S
C4467      C4468   1.420       .  A
C4467      C4472   1.409       .  A
C4468      C4469   1.415       .  A
C4469      C4470   1.398       .  A
C4469      H4478   1.077       .  S
C4470      C4471   1.403       .  A
C4470      H4479   1.081       .  S
C4471      C4472   1.407       .  A
C4472      H4480   1.082       .  S
C4481      C4482   1.400       .  A
C4481      C4486   1.400       .  A
C4482      C4483   1.404       .  A
C4482      H4495   1.083       .  S
C4483      C4484   1.419       .  A
C4483      H4496   1.078       .  S
C4484      C4490   1.435       .  A
C4484      C4485   1.422       .  A
C4485      C4487   1.399       .  A
C4485      C4486   1.404       .  A
C4486      H4497   1.085       .  S
C4487      C4488   1.388       .  A
C4487      H4498   1.084       .  S
C4488      C4489   1.399       .  A
C4488      H4499   1.084       .  S
C4489      C4490   1.423       .  A
C4489      C4494   1.406       .  A
C4490      C4491   1.415       .  A
C4491      C4492   1.402       .  A
C4491      H4500   1.078       .  S
C4492      C4493   1.405       .  A
C4492      H4501   1.081       .  S
C4493      C4494   1.403       .  A
C4494      H4502   1.082       .  S
C4503      C4504   1.402       .  A
C4503      C4508   1.407       .  A
C4504      C4505   1.397       .  A
C4504      H4517   1.081       .  S
C4505      C4506   1.415       .  A
C4505      H4518   1.078       .  S
C4506      C4512   1.432       .  A
C4506      C4507   1.420       .  A
C4507      C4509   1.402       .  A
C4507      C4508   1.410       .  A
C4508      H4519   1.083       .  S
C4509      C4510   1.394       .  A
C4509      H4520   1.084       .  S
C4510      C4511   1.400       .  A
C4510      H4521   1.084       .  S
C4511      C4512   1.424       .  A
C4511      C4516   1.413       .  A
C4512      C4513   1.412       .  A
C4513      C4514   1.393       .  A
C4513      H4522   1.078       .  S
C4514      C4515   1.401       .  A
C4514      H4523   1.084       .  S
C4515      C4516   1.403       .  A
C4516      H4524   1.084       .  S
C4525      C4526   1.403       .  A
C4525      C4530   1.405       .  A
C4526      C4527   1.396       .  A
C4526      H4539   1.081       .  S
C4527      C4528   1.413       .  A
C4527      H4540   1.077       .  S
C4528      C4534   1.431       .  A
C4528      C4529   1.422       .  A
C4529      C4531   1.400       .  A
C4529      C4530   1.407       .  A
C4530      H4541   1.082       .  S
C4531      C4532   1.390       .  A
C4531      H4542   1.084       .  S
C4532      C4533   1.399       .  A
C4532      H4543   1.084       .  S
C4533      C4534   1.422       .  A
C4533      C4538   1.404       .  A
C4534      C4535   1.417       .  A
C4535      C4536   1.398       .  A
C4535      H4544   1.077       .  S
C4536      C4537   1.396       .  A
C4536      H4545   1.083       .  S
C4537      C4538   1.399       .  A
C4538      H4546   1.084       .  S
C4547      C4548   1.403       .  A
C4547      C4552   1.409       .  A
C4548      C4549   1.399       .  A
C4548      H4561   1.081       .  S
C4549      C4550   1.416       .  A
C4549      H4562   1.076       .  S
C4550      C4556   1.435       .  A
C4550      C4551   1.420       .  A
C4551      C4553   1.402       .  A
C4551      C4552   1.412       .  A
C4552      H4563   1.082       .  S
C4553      C4554   1.395       .  A
C4553      H4564   1.084       .  S
C4554      C4555   1.401       .  A
C4554      H4565   1.084       .  S
C4555      C4556   1.425       .  A
C4555      C4560   1.416       .  A
C4556      C4557   1.412       .  A
C4557      C4558   1.395       .  A
C4557      H4566   1.076       .  S
C4558      C4559   1.402       .  A
C4558      H4567   1.084       .  S
C4559      C4560   1.404       .  A
C4560      H4568   1.084       .  S
C4569      C4570   1.403       .  A
C4569      C4574   1.408       .  A
C4570      C4571   1.399       .  A
C4570      H4583   1.082       .  S
C4571      C4572   1.415       .  A
C4571      H4584   1.077       .  S
C4572      C4578   1.436       .  A
C4572      C4573   1.422       .  A
C4573      C4575   1.402       .  A
C4573      C4574   1.414       .  A
C4574      H4585   1.083       .  S
C4575      C4576   1.395       .  A
C4575      H4586   1.084       .  S
C4576      C4577   1.401       .  A
C4576      H4587   1.084       .  S
C4577      C4578   1.424       .  A
C4577      C4582   1.415       .  A
C4578      C4579   1.414       .  A
C4579      C4580   1.397       .  A
C4579      H4588   1.077       .  S
C4580      C4581   1.400       .  A
C4580      H4589   1.084       .  S
C4581      C4582   1.403       .  A
C4582      H4590   1.084       .  S
C4591      C4592   1.406       .  A
C4591      C4596   1.402       .  A
C4592      C4593   1.403       .  A
C4592      H4605   1.082       .  S
C4593      C4594   1.415       .  A
C4593      H4606   1.078       .  S
C4594      C4600   1.437       .  A
C4594      C4595   1.424       .  A
C4595      C4597   1.398       .  A
C4595      C4596   1.407       .  A
C4596      H4607   1.082       .  S
C4597      C4598   1.388       .  A
C4597      H4608   1.084       .  S
C4598      C4599   1.399       .  A
C4598      H4609   1.084       .  S
C4599      C4600   1.422       .  A
C4599      C4604   1.403       .  A
C4600      C4601   1.420       .  A
C4601      C4602   1.407       .  A
C4601      H4610   1.078       .  S
C4602      C4603   1.401       .  A
C4602      H4611   1.083       .  S
C4603      C4604   1.401       .  A
C4604      H4612   1.085       .  S
C4613      C4614   1.400       .  A
C4613      C4618   1.400       .  A
C4614      C4615   1.405       .  A
C4614      H4627   1.083       .  S
C4615      C4616   1.420       .  A
C4615      H4628   1.078       .  S
C4616      C4622   1.437       .  A
C4616      C4617   1.422       .  A
C4617      C4619   1.399       .  A
C4617      C4618   1.405       .  A
C4618      H4629   1.085       .  S
C4619      C4620   1.390       .  A
C4619      H4630   1.084       .  S
C4620      C4621   1.399       .  A
C4620      H4631   1.084       .  S
C4621      C4622   1.424       .  A
C4621      C4626   1.409       .  A
C4622      C4623   1.413       .  A
C4623      C4624   1.401       .  A
C4623      H4632   1.078       .  S
C4624      C4625   1.406       .  A
C4624      H4633   1.081       .  S
C4625      C4626   1.404       .  A
C4626      H4634   1.083       .  S
C4635      C4636   1.403       .  A
C4635      C4640   1.404       .  A
C4636      C4637   1.398       .  A
C4636      H4649   1.081       .  S
C4637      C4638   1.414       .  A
C4637      H4650   1.077       .  S
C4638      C4644   1.433       .  A
C4638      C4639   1.423       .  A
C4639      C4641   1.400       .  A
C4639      C4640   1.407       .  A
C4640      H4651   1.083       .  S
C4641      C4642   1.390       .  A
C4641      H4652   1.084       .  S
C4642      C4643   1.400       .  A
C4642      H4653   1.084       .  S
C4643      C4644   1.422       .  A
C4643      C4648   1.406       .  A
C4644      C4645   1.417       .  A
C4645      C4646   1.399       .  A
C4645      H4654   1.077       .  S
C4646      C4647   1.400       .  A
C4646      H4655   1.082       .  S
C4647      C4648   1.402       .  A
C4648      H4656   1.083       .  S
