geometry optimzed in LAMMPS
_audit_creation_date              2020-11-30 
_audit_creation_method            'lammps2cif' 
_symmetry_space_group_name_H-M    'P1' 
_symmetry_Int_Tables_number       1 
_symmetry_cell_setting            triclinic 
loop_ 
_symmetry_equiv_pos_as_xyz 
  x,y,z 
_cell_length_a                    50.94278845 
_cell_length_b                    51.27943221520196 
_cell_length_c                    51.09486348227392 
_cell_angle_alpha                 90.06794686177292 
_cell_angle_beta                  90.13367639312604 
_cell_angle_gamma                 90.01242212632233 
loop_ 
_atom_site_label 
_atom_site_type_symbol 
_atom_site_fract_x 
_atom_site_fract_y 
_atom_site_fract_z 
_atom_site_charge 
O1          O  0.29643415  0.75287401  0.48352458    -0.77600
C2          C  0.30553772  0.70513453  0.55079714     0.83500
O3          O  0.27508371  0.65816726  0.46940939    -0.78700
O4          O  0.22185833  0.69032746  0.54968690    -0.80100
O5          O  0.21708459  0.76287791  0.50164251    -0.79900
O6          O  0.26215208  0.76018290  0.45761694    -0.78600
Zn7        Zn  0.29028564  0.71624599  0.49485700     1.55700
O8          O  0.23223888  0.75470771  0.54197567    -0.80000
Cd9        Cd  0.23554328  0.73686164  0.47753132     1.59700
Cd10       Cd  0.24373648  0.67529683  0.48975448     1.59600
O11         O  0.20813575  0.71893577  0.45308646    -0.80000
O12         O  0.25405159  0.71112436  0.49977565    -1.90500
Cd13       Cd  0.24829638  0.71763567  0.53725191     1.59900
O14         O  0.21374216  0.67675806  0.46254057    -0.79900
O15         O  0.28241046  0.71025855  0.55889829    -0.78600
C16         C  0.29512878  0.66967012  0.45960397     0.84000
C17         C  0.28489749  0.76641445  0.46605259     0.83600
O18         O  0.31144913  0.70706609  0.52671486    -0.77500
C19         C  0.21919511  0.76869413  0.52580447     0.84400
O20         O  0.30194581  0.69242858  0.46683114    -0.77600
C21         C  0.20213398  0.69493585  0.45013938     0.84600
C22         C  0.21677511  0.66694271  0.54284626     0.84900
O23         O  0.22669691  0.65671273  0.52218249    -0.80000
O24         O  0.80903817  0.71396651  0.97845619    -0.77600
C25         C  0.77905491  0.77467272  0.03796312     0.83500
O26         O  0.77561700  0.66379370  0.03397542    -0.78700
O27         O  0.70314303  0.72375797  0.04982596    -0.80100
O28         O  0.73472415  0.75938627  0.96192897    -0.79900
O29         O  0.77858069  0.70975477  0.94775316    -0.78600
Zn30       Zn  0.78823759  0.72328633  0.01085375     1.55700
O31         O  0.71084508  0.76698856  0.99765572    -0.80000
Cd32       Cd  0.74617353  0.72173970  0.96923964     1.59700
Cd33       Cd  0.74257264  0.68072252  0.01542400     1.59600
O34         O  0.71603778  0.69798450  0.95921504    -0.80000
O35         O  0.75185553  0.71703012  0.00642380    -1.90500
Cd36       Cd  0.72988654  0.74308741  0.02487696     1.59900
O37         O  0.72536168  0.66228753  0.98233145    -0.79900
O38         O  0.75525417  0.76895550  0.04348909    -0.78600
C39         C  0.79655697  0.67476686  0.04274213     0.84000
C40         C  0.80235257  0.70763132  0.95526966     0.83600
O41         O  0.79341901  0.76018047  0.02355299    -0.77500
C42         C  0.71776815  0.77284216  0.97434767     0.84400
O43         O  0.80197214  0.69829112  0.03699852    -0.77600
C44         C  0.71335271  0.67370844  0.96341878     0.84600
C45         C  0.69919827  0.69939224  0.05398506     0.84900
O46         O  0.71277215  0.68182765  0.04263716    -0.80000
O47         O  0.20238353  0.53443472  0.19489521    -0.77600
C48         C  0.26287025  0.47387599  0.22296032     0.83500
O49         O  0.15289203  0.47657328  0.23091244    -0.78700
O50         O  0.21615293  0.46224215  0.29973970    -0.80100
O51         O  0.24663594  0.55301291  0.27372872    -0.79900
O52         O  0.19996821  0.56576342  0.22485866    -0.78600
Zn53       Zn  0.21161679  0.50201046  0.21548061     1.55700
O54         O  0.25836491  0.51439114  0.29018635    -0.80000
Cd55       Cd  0.20968064  0.54474382  0.25850198     1.59700
Cd56       Cd  0.17088867  0.49487521  0.26239694     1.59600
O57         O  0.18232361  0.55442319  0.28605678    -0.80000
O58         O  0.20633647  0.50701908  0.25211232    -1.90500
Cd59       Cd  0.23323274  0.48789151  0.27256028     1.59900
O60         O  0.15055028  0.52469457  0.28131496    -0.79900
O61         O  0.25757034  0.46853092  0.24675229    -0.78600
C62         C  0.16344388  0.46784159  0.20999303     0.84000
C63         C  0.19719520  0.55790247  0.20129363     0.83600
O64         O  0.24846087  0.48885010  0.20907547    -0.77500
C65         C  0.26239188  0.53876254  0.28698165     0.84400
O66         O  0.18627029  0.47508815  0.20298706    -0.77600
C67         C  0.15960830  0.54562363  0.29156451     0.84600
C68         C  0.19215695  0.45577438  0.30321934     0.84900
O69         O  0.17355939  0.46591740  0.29008926    -0.80000
O70         O  0.52818521  0.19928006  0.19901495    -0.77600
C71         C  0.46931104  0.22666452  0.26081759     0.83500
O72         O  0.47683866  0.23806559  0.14892586    -0.78700
O73         O  0.45702674  0.30312892  0.21251112    -0.80100
O74         O  0.54611840  0.27501290  0.25098054    -0.79900
O75         O  0.56153116  0.22708331  0.20233023    -0.78600
Zn76       Zn  0.49663100  0.22094515  0.20877739     1.55700
O77         O  0.50817319  0.29666443  0.25498805    -0.80000
Cd78       Cd  0.54115862  0.26105029  0.21299773     1.59700
Cd79       Cd  0.49553351  0.26893178  0.16918782     1.59600
O80         O  0.55529368  0.28951537  0.18903995    -0.80000
O81         O  0.50353232  0.25706773  0.20527340    -1.90500
Cd82       Cd  0.48254583  0.27671327  0.23110057     1.59900
O83         O  0.52903808  0.28790931  0.15385393    -0.79900
O84         O  0.46444071  0.25078544  0.25677110    -0.78600
C85         C  0.46472227  0.21889409  0.15960319     0.84000
C86         C  0.55247755  0.20455113  0.19653176     0.83600
O87         O  0.48303451  0.21323043  0.24486242    -0.77500
C88         C  0.53153075  0.29172085  0.26255858     0.84400
O89         O  0.46922777  0.21190340  0.18305738    -0.77600
C90         C  0.54965300  0.29622168  0.16573969     0.84600
C91         C  0.45406758  0.30913250  0.18835020     0.84900
O92         O  0.46718022  0.29767947  0.17052870    -0.80000
O93         O  0.31104299  0.20734253  0.47355926    -0.77600
C94         C  0.28170514  0.27208890  0.52766619     0.83500
O95         O  0.27191433  0.15911438  0.52363347    -0.78700
O96         O  0.20591865  0.22166516  0.54134722    -0.80100
O97         O  0.23518483  0.25797412  0.45259218    -0.79900
O98         O  0.28433091  0.21178724  0.43953484    -0.78600
Zn99       Zn  0.28851211  0.21808831  0.50426446     1.55700
O100        O  0.21072859  0.26268145  0.48855854    -0.80000
Cd101      Cd  0.24953037  0.22096158  0.45883422     1.59700
Cd102      Cd  0.24160386  0.17830397  0.50360944     1.59600
O103        O  0.22152062  0.19621201  0.44507582    -0.80000
O104        O  0.25265879  0.21448695  0.49623363    -1.90500
Cd105      Cd  0.23170104  0.24074477  0.51543566     1.59900
O106        O  0.22564603  0.16083737  0.46993791    -0.79900
O107        O  0.25717987  0.26851095  0.53168477    -0.78600
C108        C  0.29033389  0.17023493  0.53657486     0.84000
C109        C  0.30667197  0.20558428  0.44905490     0.83600
O110        O  0.29544125  0.25450922  0.51653510    -0.77500
C111        C  0.21718398  0.26960972  0.46545545     0.84400
O112        O  0.29688746  0.19381835  0.53274270    -0.77600
C113        C  0.21610652  0.17250097  0.44990612     0.84600
C114        C  0.19992552  0.19745991  0.54347397     0.84900
O115        O  0.21123858  0.17985871  0.52996839    -0.80000
O116        O  0.74625186  0.53241860  0.20376799    -0.77600
C117        C  0.70029419  0.46272367  0.19145939     0.83500
O118        O  0.65075091  0.53489725  0.22790665    -0.78700
O119        O  0.69011291  0.45768948  0.27636759    -0.80100
O120        O  0.75854506  0.50308846  0.28571513    -0.79900
O121        O  0.75911557  0.55040792  0.24098131    -0.78600
Zn122      Zn  0.71112851  0.51755348  0.21050123     1.55700
O123        O  0.75216067  0.46695248  0.26198055    -0.80000
Cd124      Cd  0.73441732  0.53003830  0.26673395     1.59700
Cd125      Cd  0.67152470  0.51710753  0.25834149     1.59600
O126        O  0.71534472  0.55463295  0.29372997    -0.80000
O127        O  0.70775221  0.51004097  0.24640091    -1.90500
Cd128      Cd  0.71450198  0.47270204  0.24875581     1.59900
O129        O  0.67310328  0.54423658  0.28819873    -0.79900
O130        O  0.70458180  0.45345929  0.21421622    -0.78600
C131        C  0.66074131  0.54690144  0.20839832     0.84000
C132        C  0.76230043  0.54663199  0.21645124     0.83600
O133        O  0.70365292  0.48689196  0.18716574    -0.77500
C134        C  0.76461557  0.47965412  0.27957824     0.84400
O135        O  0.68439853  0.54364730  0.20128429    -0.77600
C136        C  0.69106073  0.55729120  0.29970078     0.84600
C137        C  0.66652951  0.46286295  0.28260908     0.84900
O138        O  0.65491614  0.48356915  0.27478566    -0.80000
O139        O  0.01429950  0.30130800  0.24942400    -0.77600
C140        C  0.94637385  0.31131800  0.30069051     0.83500
O141        O  0.02079707  0.28026491  0.34551777    -0.78700
O142        O  0.94480345  0.22606538  0.30872577    -0.80100
O143        O  0.98653971  0.22010664  0.23968355    -0.79900
O144        O  0.03311161  0.26312256  0.23938172    -0.78600
Zn145      Zn  0.00170311  0.29492031  0.28603230     1.55700
O146        O  0.95143590  0.24510684  0.24636067    -0.80000
Cd147      Cd  0.01374973  0.23772397  0.26424159     1.59700
Cd148      Cd  0.00378135  0.24821233  0.32635253     1.59600
O149        O  0.03885310  0.21058523  0.28240056    -0.80000
O150        O  0.99507829  0.25895077  0.29053761    -1.90500
Cd151      Cd  0.95758258  0.25515768  0.28487951     1.59900
O152        O  0.03139218  0.21866886  0.32466612    -0.79900
O153        O  0.93768308  0.28833732  0.29680033    -0.78600
C154        C  0.03228103  0.30011810  0.33551836     0.84000
C155        C  0.02843042  0.28711928  0.23455905     0.83600
O156        O  0.97024703  0.31693767  0.29592210    -0.77500
C157        C  0.96394199  0.22840272  0.23269183     0.84400
O158        O  0.02935001  0.30539848  0.31136684    -0.77600
C159        C  0.04314409  0.20596353  0.30667092     0.84600
C160        C  0.95037608  0.22171833  0.33263071     0.84900
O161        O  0.97066976  0.23151771  0.34372609    -0.80000
O162        O  0.79868945  0.03726702  0.31088472    -0.77600
C163        C  0.73842571  0.97761110  0.28615222     0.83500
O164        O  0.84848580  0.98349535  0.27242228    -0.78700
O165        O  0.78587328  0.96514775  0.20821129    -0.80100
O166        O  0.74731630  0.05268160  0.23275106    -0.79900
O167        O  0.79145859  0.06978463  0.28315855    -0.78600
Zn168      Zn  0.78997401  0.00537729  0.29015277     1.55700
O169        O  0.74142175  0.01338932  0.21463824    -0.80000
Cd170      Cd  0.78428952  0.04821948  0.24908019     1.59700
Cd171      Cd  0.82899709  0.00393552  0.24248268     1.59600
O172        O  0.81005466  0.06179554  0.22207555    -0.80000
O173        O  0.79265990  0.01125563  0.25392559    -1.90500
Cd174      Cd  0.76667083  0.98933863  0.23514821     1.59900
O175        O  0.84610233  0.03828890  0.22775648    -0.79900
O176        O  0.74248284  0.97060980  0.26244953    -0.78600
C177        C  0.83859859  0.97288377  0.29283204     0.84000
C178        C  0.79840322  0.06149812  0.30569719     0.83600
O179        O  0.75388611  0.99332172  0.29779590    -0.77500
C180        C  0.73485407  0.03721838  0.21753871     0.84400
O181        O  0.81559701  0.97821046  0.30082870    -0.77600
C182        C  0.83429685  0.05799922  0.21777223     0.84600
C183        C  0.80979268  0.96429679  0.20056942     0.84900
O184        O  0.82758821  0.97820668  0.21128723    -0.80000
O185        O  0.70828214  0.75920393  0.48096281    -0.77600
C186        C  0.69558337  0.80725709  0.55060095     0.83500
O187        O  0.72657615  0.85571030  0.47358931    -0.78700
O188        O  0.77967600  0.82271756  0.55268483    -0.80100
O189        O  0.79066482  0.75285336  0.50746274    -0.79900
O190        O  0.74674956  0.75243284  0.46104616    -0.78600
Zn191      Zn  0.71287743  0.79592423  0.49464808     1.55700
O192        O  0.76907425  0.75971657  0.54486203    -0.80000
Cd193      Cd  0.77099880  0.77736990  0.48178065     1.59700
Cd194      Cd  0.75845831  0.83892577  0.49357073     1.59600
O195        O  0.79716998  0.79712750  0.45756785    -0.80000
O196        O  0.74896936  0.80231675  0.50152891    -1.90500
Cd197      Cd  0.75335595  0.79612765  0.53890549     1.59900
O198        O  0.78916814  0.83898700  0.46679463    -0.79900
O199        O  0.71870094  0.80294883  0.55919685    -0.78600
C200        C  0.70748335  0.84399127  0.46218843     0.84000
C201        C  0.72307353  0.74589843  0.46584680     0.83600
O202        O  0.69037742  0.80467918  0.52630413    -0.77500
C203        C  0.78544033  0.74680805  0.53110691     0.84400
O204        O  0.70163070  0.82035738  0.46686437    -0.77600
C205        C  0.80181129  0.82141626  0.45436201     0.84600
C206        C  0.78269032  0.84693203  0.54826844     0.84900
O207        O  0.77256405  0.85754255  0.52787149    -0.80000
C208        C  0.91960228  0.85040323  0.35033698     0.87400
C209        C  0.93599902  0.86446920  0.37144662    -0.52800
C210        C  0.92233206  0.88248583  0.38557768     0.10400
C211        C  0.89283001  0.88363552  0.37887162     0.21300
C212        C  0.89773042  0.83795722  0.36697116    -0.53500
C213        C  0.88353196  0.85508786  0.38174484     0.10500
C214        C  0.90643057  0.87232312  0.33486192    -0.53100
C215        C  0.89191567  0.88950827  0.34918352     0.11000
H216        H  0.95638451  0.86041882  0.37586075     0.15500
H217        H  0.88160861  0.89746247  0.39122792     0.01300
H218        H  0.89452358  0.81709119  0.36809947     0.15900
H219        H  0.90881208  0.87415727  0.31381811     0.15600
C220        C  0.84039588  0.15935882  0.42408133     0.87400
C221        C  0.82624090  0.14284654  0.40298762    -0.52800
C222        C  0.84241156  0.12747336  0.38814112     0.10400
C223        C  0.87184079  0.13071676  0.39515324     0.21300
C224        C  0.85702114  0.13972305  0.43962631    -0.53500
C225        C  0.87385386  0.12488214  0.42493578     0.10500
C226        C  0.85995441  0.17477905  0.40752048    -0.53100
C227        C  0.87659802  0.16032285  0.39273783     0.11000
H228        H  0.80564767  0.14437010  0.39812323     0.15500
H229        H  0.88519829  0.11889149  0.38279401     0.01300
H230        H  0.85557714  0.13794842  0.46073979     0.15900
H231        H  0.86017684  0.19594638  0.40689404     0.15600
C232        C  0.85575175  0.92797180  0.66094860     0.87400
C233        C  0.87327265  0.90614088  0.67229222    -0.52800
C234        C  0.88664412  0.89157013  0.65416208     0.10400
C235        C  0.88141153  0.90079191  0.62571520     0.21300
C236        C  0.87597603  0.94391546  0.64483425    -0.53500
C237        C  0.88918472  0.92999451  0.62590099     0.10500
C238        C  0.83843210  0.91471085  0.64073098    -0.53100
C239        C  0.85114963  0.90081776  0.62235755     0.11000
H240        H  0.87637172  0.90336529  0.69302530     0.15500
H241        H  0.89213130  0.88908994  0.61109480     0.01300
H242        H  0.87972036  0.96444581  0.64820260     0.15900
H243        H  0.81711328  0.91613572  0.64093395     0.15600
C244        C  0.15007377  0.09070081  0.33654696     0.87400
C245        C  0.13170212  0.07263262  0.35239469    -0.52800
C246        C  0.11589973  0.08517422  0.36995462     0.10400
C247        C  0.11998807  0.11496111  0.37053564     0.21300
C248        C  0.13176287  0.11129193  0.32443915    -0.53500
C249        C  0.11581823  0.12408340  0.34188495     0.10500
C250        C  0.16498582  0.10534640  0.35816277    -0.53100
C251        C  0.14963899  0.11829902  0.37564428     0.11000
H252        H  0.13208420  0.05161444  0.35186717     0.15500
H253        H  0.10742861  0.12489583  0.38517130     0.01300
H254        H  0.13189183  0.11571783  0.30366779     0.15900
H255        H  0.18628448  0.10581259  0.35940231     0.15600
C256        C  0.08444806  0.16775237  0.64861472     0.87400
C257        C  0.10532630  0.17935916  0.63022397    -0.52800
C258        C  0.11730351  0.16169022  0.61412383     0.10400
C259        C  0.10641855  0.13362061  0.61728396     0.21300
C260        C  0.06523845  0.15480397  0.62897580    -0.53500
C261        C  0.07639199  0.13651399  0.61269029     0.10500
C262        C  0.09816668  0.14528531  0.66246131    -0.53100
C263        C  0.10944913  0.12737221  0.64662227     0.11000
H264        H  0.10934040  0.19994486  0.62833693     0.15500
H265        H  0.11599175  0.11890327  0.60457023     0.01300
H266        H  0.04476918  0.16043566  0.62780237     0.15900
H267        H  0.09877716  0.14357739  0.68367115     0.15600
C268        C  0.16205078  0.85488976  0.57253044     0.87400
C269        C  0.14695649  0.87536590  0.55697239    -0.52800
C270        C  0.12878105  0.88864704  0.57111457     0.10400
C271        C  0.12789498  0.88105032  0.60057058     0.21300
C272        C  0.17411510  0.87038473  0.59571992    -0.53500
C273        C  0.15645806  0.88442917  0.61030514     0.10500
C274        C  0.14080727  0.83822089  0.58571245    -0.53100
C275        C  0.12328370  0.85124486  0.60106542     0.11000
H276        H  0.14968431  0.87848125  0.53612347     0.15500
H277        H  0.11352249  0.89205636  0.61233409     0.01300
H278        H  0.19453195  0.87045788  0.60104114     0.15900
H279        H  0.13995723  0.81721737  0.58310248     0.15600
O280        O  0.02455394  0.02512120  0.43928376    -0.77600
C281        C  0.97649472  0.95551036  0.45408212     0.83500
O282        O  0.95309607  0.05123671  0.49609944    -0.78700
O283        O  0.97023882  0.96805498  0.53739270    -0.80100
O284        O  0.06216137  0.98428675  0.51521637    -0.79900
O285        O  0.05695269  0.03014092  0.46810094    -0.78600
Zn286      Zn  0.99340165  0.01241070  0.46053806     1.55700
O287        O  0.03140509  0.95455494  0.52138377    -0.80000
Cd288      Cd  0.04054335  0.01646375  0.50252972     1.59700
Cd289      Cd  0.97952291  0.03077645  0.51996065     1.59600
O290        O  0.04421818  0.04603712  0.52978696    -0.80000
O291        O  0.00246411  0.00812509  0.49735900    -1.90500
Cd292      Cd  0.99731334  0.97119898  0.50791508     1.59900
O293        O  0.00318387  0.05787377  0.53927596    -0.79900
O294        O  0.98347140  0.94920236  0.47714518    -0.78600
C295        C  0.95039362  0.05252079  0.47123041     0.84000
C296        C  0.04793582  0.03213599  0.44489277     0.83600
O297        O  0.97931685  0.97875611  0.44574009    -0.77500
C298        C  0.05535250  0.96147313  0.52245351     0.84400
O299        O  0.96469837  0.03905076  0.45593165    -0.77600
C300        C  0.02799846  0.06088270  0.54158900     0.84600
C301        C  0.95696137  0.98395246  0.55116377     0.84900
O302        O  0.95841967  0.00863719  0.54783476    -0.80000
O303        O  0.68817690  0.30500131  0.47333917    -0.77600
C304        C  0.71164526  0.24402447  0.53442962     0.83500
O305        O  0.72538739  0.35254373  0.53221369    -0.78700
O306        O  0.78973341  0.29143077  0.54954005    -0.80100
O307        O  0.76688128  0.25507362  0.46001492    -0.79900
O308        O  0.71757623  0.29933708  0.44185636    -0.78600
Zn309      Zn  0.70770712  0.29537109  0.50624513     1.55700
O310        O  0.78274615  0.24757637  0.50026411    -0.80000
Cd311      Cd  0.75092111  0.29201495  0.46439017     1.59700
Cd312      Cd  0.75527729  0.33448082  0.51081607     1.59600
O313        O  0.77796685  0.31881305  0.45196361    -0.80000
O314        O  0.74434849  0.29874512  0.50170604    -1.90500
Cd315      Cd  0.76264826  0.27300845  0.52432103     1.59900
O316        O  0.77212502  0.35287749  0.47847204    -0.79900
O317        O  0.73489354  0.24915316  0.54245390    -0.78600
C318        C  0.70430336  0.34256197  0.54143901     0.84000
C319        C  0.69459006  0.30583893  0.44928119     0.83600
O320        O  0.69994266  0.25893186  0.51818031    -0.77500
C321        C  0.78062577  0.24170405  0.47607956     0.84400
O322        O  0.69620234  0.32039349  0.53364720    -0.77600
C323        C  0.78278342  0.34235822  0.45837524     0.84600
C324        C  0.79710324  0.31529849  0.55016765     0.84900
O325        O  0.78604763  0.33275057  0.53638614    -0.80000
O326        O  0.02729738  0.69325768  0.70357733    -0.77600
C327        C  0.96746826  0.72433288  0.76198329     0.83500
O328        O  0.97379313  0.73291262  0.64985689    -0.78700
O329        O  0.95847412  0.80046606  0.71296870    -0.80100
O330        O  0.04760643  0.77101993  0.74688988    -0.79900
O331        O  0.06022211  0.72110339  0.70310638    -0.78600
Zn332      Zn  0.99552176  0.71615647  0.70997687     1.55700
O333        O  0.01039620  0.79269187  0.75451711    -0.80000
Cd334      Cd  0.04095994  0.75614159  0.70988006     1.59700
Cd335      Cd  0.99382707  0.76345686  0.66859692     1.59600
O336        O  0.05541353  0.78169061  0.68246874    -0.80000
O337        O  0.00296148  0.75227826  0.70473172    -1.90500
Cd338      Cd  0.98358775  0.77338265  0.73116790     1.59900
O339        O  0.02660577  0.77932515  0.64947303    -0.79900
O340        O  0.96494815  0.74879824  0.75794428    -0.78600
C341        C  0.96360055  0.71276901  0.66057254     0.84000
C342        C  0.05165838  0.69788443  0.70052259     0.83600
O343        O  0.97967827  0.71019129  0.74548182    -0.77500
C344        C  0.03404004  0.78700542  0.76046697     0.84400
O345        O  0.96930891  0.70562535  0.68368384    -0.77600
C346        C  0.04841039  0.78721733  0.65915476     0.84600
C347        C  0.95529299  0.80614153  0.68876495     0.84900
O348        O  0.96749402  0.79398355  0.67073226    -0.80000
C349        C  0.15299439  0.58295933  0.65951519     0.87400
C350        C  0.13546289  0.60309267  0.67296017    -0.52800
C351        C  0.12139211  0.61845107  0.65642713     0.10400
C352        C  0.12523351  0.61163509  0.62696787     0.21300
C353        C  0.13304609  0.56760217  0.64229787    -0.53500
C354        C  0.11881033  0.58228699  0.62486577     0.10500
C355        C  0.16910840  0.59850633  0.63946402    -0.53100
C356        C  0.15506687  0.61290692  0.62194248     0.11000
H357        H  0.13418386  0.60505451  0.69410025     0.15500
H358        H  0.11387261  0.62382044  0.61326250     0.01300
H359        H  0.12898209  0.54698311  0.64347902     0.15900
H360        H  0.19041484  0.59761699  0.63895732     0.15600
C361        C  0.15548352  0.35346851  0.41746432     0.87400
C362        C  0.16881527  0.36929596  0.39614515    -0.52800
C363        C  0.15268510  0.38583738  0.38312586     0.10400
C364        C  0.12371067  0.38524378  0.39277836     0.35700
C365        C  0.14193107  0.37392585  0.43523549    -0.53500
C366        C  0.12515065  0.39060271  0.42250163     0.10500
C367        C  0.13196088  0.34018899  0.40398973    -0.53100
C368        C  0.11497476  0.35636980  0.39116386     0.11000
H369        H  0.18961359  0.36767194  0.39174369     0.15500
H370        H  0.11044909  0.39884552  0.38255294     0.01300
H371        H  0.14365875  0.37435313  0.45625061     0.15900
H372        H  0.12891179  0.31927104  0.40485897     0.15600
C373        C  0.84324190  0.66099142  0.58034162     0.87400
C374        C  0.85697823  0.64182001  0.56154367    -0.52800
C375        C  0.87293670  0.62408220  0.57358748     0.10400
C376        C  0.87390369  0.62700250  0.60366720     0.21300
C377        C  0.82927957  0.64391310  0.60055004    -0.53500
C378        C  0.84484320  0.62581553  0.61268760     0.10500
C379        C  0.86664765  0.67301666  0.59507321    -0.53100
C380        C  0.88227160  0.65561571  0.60778795     0.11000
H381        H  0.85623862  0.64325532  0.54041282     0.15500
H382        H  0.88706871  0.61268271  0.61330188     0.01300
H383        H  0.80857988  0.64621250  0.60504289     0.15900
H384        H  0.87084301  0.69378469  0.59540135     0.15600
C385        C  0.84500731  0.42678854  0.34338623     0.87400
C386        C  0.86502919  0.44288169  0.35964938    -0.52800
C387        C  0.88081094  0.42825012  0.37584827     0.10400
C388        C  0.87451910  0.39876557  0.37473799     0.21300
C389        C  0.86157237  0.40610266  0.32946534    -0.53500
C390        C  0.87693752  0.39114186  0.34543702     0.10500
C391        C  0.83006650  0.41240266  0.36494570    -0.53100
C392        C  0.84491920  0.39759803  0.38120606     0.11000
H393        H  0.86555858  0.46395537  0.36040328     0.15500
H394        H  0.88688472  0.38673917  0.38788065     0.01300
H395        H  0.86142782  0.40393912  0.30832418     0.15900
H396        H  0.80905897  0.41455742  0.36781433     0.15600
C397        C  0.91737376  0.35029059  0.64767642     0.87400
C398        C  0.89650943  0.33781417  0.62970560    -0.52800
C399        C  0.88152391  0.35511099  0.61597002     0.10400
C400        C  0.88989974  0.38384615  0.61993294     0.21300
C401        C  0.93356081  0.36617603  0.62765327    -0.53500
C402        C  0.91959502  0.38426147  0.61361210     0.10500
C403        C  0.90252821  0.37070676  0.66384089    -0.53100
C404        C  0.88850047  0.38836196  0.64972834     0.11000
H405        H  0.89475023  0.31713925  0.62592336     0.15500
H406        H  0.87813292  0.39789902  0.60830202     0.01300
H407        H  0.95436046  0.36318605  0.62442094     0.15900
H408        H  0.90347595  0.37141132  0.68508539     0.15600
C409        C  0.08357056  0.66655579  0.34968352     0.87400
C410        C  0.06522030  0.65404488  0.37040191    -0.52800
C411        C  0.07709957  0.63599665  0.38643422     0.10400
C412        C  0.10659151  0.63280288  0.38054152     0.21300
C413        C  0.10619631  0.67797743  0.36543817    -0.53500
C414        C  0.11830052  0.66073810  0.38150891     0.10500
C415        C  0.09501152  0.64245754  0.33571240    -0.53100
C416        C  0.10708550  0.62464256  0.35153107     0.11000
H417        H  0.04435448  0.65739275  0.37129061     0.15500
H418        H  0.11631104  0.61864642  0.39353965     0.01300
H419        H  0.11209336  0.69830550  0.36416917     0.15900
H420        H  0.09349029  0.63970781  0.31469862     0.15600
O421        O  0.01855402  0.56537926  0.47719368    -0.77600
C422        C  0.94660599  0.55398237  0.52207597     0.83500
O423        O  0.04413750  0.50863664  0.54763543    -0.78700
O424        O  0.95833457  0.47118230  0.53146137    -0.80100
O425        O  0.97781443  0.48638899  0.43993220    -0.79900
O426        O  0.02071433  0.53746650  0.44376517    -0.78600
Zn427      Zn  0.00444229  0.54513366  0.50792321     1.55700
O428        O  0.94608896  0.48461388  0.46964925    -0.80000
Cd429      Cd  0.00857253  0.50294477  0.46094749     1.59700
Cd430      Cd  0.02240269  0.48545350  0.52155733     1.59600
O431        O  0.03901438  0.47682802  0.45788077    -0.80000
O432        O  0.99983879  0.50859266  0.49872400    -1.90500
Cd433      Cd  0.96223396  0.49952058  0.50335863     1.59900
O434        O  0.04895583  0.46441930  0.49847102    -0.79900
O435        O  0.94016141  0.53102737  0.51511763    -0.78600
C436        C  0.04538543  0.53339783  0.55041736     0.84000
C437        C  0.02420082  0.56012295  0.45348186     0.83600
O438        O  0.97037326  0.56172983  0.52057466    -0.77500
C439        C  0.95462278  0.48003352  0.44670721     0.84400
O440        O  0.03138107  0.54861467  0.53649907    -0.77600
C441        C  0.05273688  0.46337512  0.47376253     0.84600
C442        C  0.97400054  0.45697202  0.54465124     0.84900
O443        O  0.99894386  0.45914752  0.54283786    -0.80000
C444        C  0.66188616  0.36227358  0.07534690     0.87400
C445        C  0.64317443  0.37883560  0.05858309    -0.52800
C446        C  0.62562340  0.39313403  0.07255926     0.10400
C447        C  0.62762031  0.38908404  0.10266669     0.21300
C448        C  0.67404323  0.38156671  0.09507657    -0.53500
C449        C  0.65636187  0.39517534  0.10973488     0.10500
C450        C  0.64248908  0.34569405  0.09126002    -0.53100
C451        C  0.62493845  0.35910545  0.10657020     0.11000
H452        H  0.64175669  0.37843686  0.03753350     0.15500
H453        H  0.61417727  0.40136677  0.11419992     0.01300
H454        H  0.69507284  0.38384139  0.09773235     0.15900
H455        H  0.64226613  0.32463618  0.08935531     0.15600
C456        C  0.57823852  0.66562123  0.15165175     0.87400
C457        C  0.60101433  0.67754239  0.13570465    -0.52800
C458        C  0.61367631  0.66035371  0.11952676     0.10400
C459        C  0.60309130  0.63210907  0.12175210     0.21300
C460        C  0.56076684  0.65213861  0.13116784    -0.53500
C461        C  0.57332422  0.63418220  0.11572742     0.10500
C462        C  0.59219505  0.64369286  0.16640802    -0.53100
C463        C  0.60465897  0.62601594  0.15119113     0.11000
H464        H  0.60822555  0.69725013  0.13782967     0.15500
H465        H  0.61370136  0.61764306  0.10957500     0.01300
H466        H  0.54007265  0.65671726  0.12918137     0.15900
H467        H  0.59310704  0.64267226  0.18764134     0.15600
C468        C  0.41720186  0.34279333  0.85104740     0.87400
C469        C  0.43386940  0.35818961  0.87148097    -0.52800
C470        C  0.42011580  0.37629695  0.88607424     0.10400
C471        C  0.39044703  0.37610495  0.87935788     0.21300
C472        C  0.39558625  0.33025530  0.86732731    -0.53500
C473        C  0.38149894  0.34725050  0.88202220     0.10500
C474        C  0.40374775  0.36472126  0.83552967    -0.53100
C475        C  0.38976990  0.38212511  0.84995789     0.11000
H476        H  0.45473407  0.35623324  0.87365741     0.15500
H477        H  0.37859525  0.39016360  0.89055158     0.01300
H478        H  0.39183669  0.30939402  0.86741908     0.15900
H479        H  0.40543145  0.36645787  0.81440503     0.15600
C480        C  0.33657386  0.65587123  0.91769372     0.87400
C481        C  0.32530337  0.63756966  0.89674584    -0.52800
C482        C  0.34354701  0.62366179  0.88311543     0.10400
C483        C  0.37208694  0.62895622  0.89207089     0.21300
C484        C  0.35357558  0.63785625  0.93513483    -0.53500
C485        C  0.37199548  0.62359169  0.92184196     0.10500
C486        C  0.35736574  0.67242017  0.90359303    -0.53100
C487        C  0.37587159  0.65879909  0.88999502     0.11000
H488        H  0.30439526  0.63578814  0.89293732     0.15500
H489        H  0.38687535  0.61752919  0.88104061     0.01300
H490        H  0.35280662  0.63699221  0.95618303     0.15900
H491        H  0.35777449  0.69356236  0.90498985     0.15600
C492        C  0.65327353  0.59043347  0.84754413     0.87400
C493        C  0.63384866  0.57226949  0.86155836    -0.52800
C494        C  0.61737946  0.58436493  0.87890163     0.10400
C495        C  0.62156607  0.61427338  0.88042563     0.21300
C496        C  0.63604694  0.61195799  0.83508576    -0.53500
C497        C  0.61889114  0.62397642  0.85179116     0.10500
C498        C  0.66709828  0.60558919  0.86937071    -0.53100
C499        C  0.65104723  0.61767238  0.88680356     0.11000
H500        H  0.63333658  0.55138723  0.85804663     0.15500
H501        H  0.60837867  0.62424130  0.89450116     0.01300
H502        H  0.63818544  0.61918786  0.81536881     0.15900
H503        H  0.68830318  0.60769280  0.87039558     0.15600
C504        C  0.34763371  0.42726335  0.16202312     0.87400
C505        C  0.36638856  0.40748017  0.17465475    -0.52800
C506        C  0.38113986  0.39312013  0.15753630     0.10400
C507        C  0.37619417  0.40094907  0.12854715     0.21300
C508        C  0.36566646  0.44446904  0.14465590    -0.53500
C509        C  0.38106552  0.43074489  0.12734460     0.10500
C510        C  0.33195348  0.41214159  0.14141701    -0.53100
C511        C  0.34640521  0.39836562  0.12406698     0.11000
H512        H  0.36805814  0.40565275  0.19573452     0.15500
H513        H  0.38775567  0.38947684  0.11427380     0.01300
H514        H  0.36523837  0.46551245  0.14406873     0.15900
H515        H  0.31068011  0.41307516  0.13999354     0.15600
O516        O  0.47013515  0.56215415  0.97735923    -0.77600
C517        C  0.52474751  0.55968085  0.04409288     0.83500
O518        O  0.54078138  0.50669873  0.95005637    -0.78700
O519        O  0.53724640  0.47521595  0.03972251    -0.80100
O520        O  0.44366609  0.48634037  0.03083387    -0.79900
O521        O  0.43872730  0.53241960  0.98254422    -0.78600
Zn522      Zn  0.50339358  0.54467428  0.99037361     1.55700
O523        O  0.47651781  0.48772771  0.05965985    -0.80000
Cd524      Cd  0.45932233  0.50027135  0.99592507     1.59700
Cd525      Cd  0.51839965  0.48441454  0.97624392     1.59600
O526        O  0.45372154  0.47173337  0.96783065    -0.80000
O527        O  0.49744721  0.50825402  0.99978561    -1.90500
Cd528      Cd  0.50747315  0.50249449  0.03735362     1.59900
O529        O  0.49340807  0.45942166  0.95508553    -0.79900
O530        O  0.52130140  0.53694744  0.05362404    -0.78600
C531        C  0.54268344  0.53140445  0.94726680     0.84000
C532        C  0.44628374  0.55493801  0.97516760     0.83600
O533        O  0.51863629  0.56516826  0.02055107    -0.77500
C534        C  0.45285668  0.48203241  0.05372008     0.84400
O535        O  0.52953773  0.54712227  0.96136087    -0.77600
C536        C  0.46841327  0.45726749  0.95384234     0.84600
C537        C  0.54911530  0.46087041  0.02317758     0.84900
O538        O  0.54419188  0.46173865  0.99866096    -0.80000
O539        O  0.30391306  0.47996923  0.68817230    -0.77600
C540        C  0.24077977  0.53713463  0.71817463     0.83500
O541        O  0.35231628  0.53147942  0.72964828    -0.78700
O542        O  0.28711661  0.54676909  0.79571969    -0.80100
O543        O  0.25156068  0.45980336  0.76077623    -0.79900
O544        O  0.30146900  0.44626753  0.71521143    -0.78600
Zn545      Zn  0.29307557  0.51068965  0.71081726     1.55700
O546        O  0.24521092  0.49522752  0.78532536    -0.80000
Cd547      Cd  0.29028274  0.46549918  0.74951818     1.59700
Cd548      Cd  0.33191604  0.51228605  0.75933491     1.59600
O549        O  0.31463992  0.45191830  0.77831409    -0.80000
O550        O  0.29649032  0.50309873  0.74687248    -1.90500
Cd551      Cd  0.26994633  0.52190248  0.76787042     1.59900
O552        O  0.34833447  0.47987345  0.77730515    -0.79900
O553        O  0.24518082  0.54129327  0.74242923    -0.78600
C554        C  0.34171332  0.54360062  0.71046749     0.84000
C555        C  0.30703643  0.45574045  0.69280614     0.83600
O556        O  0.25635870  0.52377805  0.70389687    -0.77500
C557        C  0.23803117  0.47271195  0.77740340     0.84400
O558        O  0.31845141  0.53866358  0.70279157    -0.77600
C559        C  0.33748803  0.45897649  0.78567516     0.84600
C560        C  0.31127670  0.55111137  0.80100224     0.84900
O561        O  0.32970657  0.53955960  0.78886000    -0.80000
C562        C  0.66510513  0.66068533  0.41815085     0.87400
C563        C  0.64925501  0.64238994  0.43628651    -0.52800
C564        C  0.63056903  0.62765072  0.42399404     0.10400
C565        C  0.62911029  0.63268995  0.39419228     0.21300
C566        C  0.67582237  0.64270533  0.39668624    -0.53500
C567        C  0.65744017  0.62779153  0.38398088     0.10500
C568        C  0.64359607  0.67673028  0.40453073    -0.53100
C569        C  0.62495124  0.66247457  0.39182237     0.11000
H570        H  0.65115294  0.64148411  0.45722335     0.15500
H571        H  0.61362209  0.62102836  0.38439565     0.01300
H572        H  0.69650390  0.64229311  0.39163481     0.15900
H573        H  0.64337344  0.69792380  0.40448385     0.15600
C574        C  0.64779785  0.42541955  0.66226513     0.87400
C575        C  0.62975499  0.44265035  0.64486745    -0.52800
C576        C  0.61380293  0.42912355  0.62788779     0.10400
C577        C  0.61799648  0.39926040  0.62940969     0.21300
C578        C  0.62908606  0.40593617  0.67538213    -0.53500
C579        C  0.61359167  0.39193423  0.65852075     0.10500
C580        C  0.66280794  0.40977187  0.64164661    -0.53100
C581        C  0.64771856  0.39598417  0.62473151     0.11000
H582        H  0.63098350  0.46364067  0.64359962     0.15500
H583        H  0.60571864  0.38782812  0.61559511     0.01300
H584        H  0.62824097  0.40356476  0.69647231     0.15900
H585        H  0.68403165  0.41052058  0.63965187     0.15600
C586        C  0.42176179  0.66376329  0.65248415     0.87400
C587        C  0.43766420  0.64823191  0.63166577    -0.52800
C588        C  0.42304467  0.63119083  0.61661468     0.10400
C589        C  0.39356750  0.63200288  0.62352720     0.21300
C590        C  0.40077876  0.67726538  0.63541832    -0.53500
C591        C  0.38577704  0.66098926  0.62024664     0.10500
C592        C  0.40727313  0.64295431  0.66781699    -0.53100
C593        C  0.39276552  0.62642088  0.65329127     0.11000
H594        H  0.45829823  0.65092769  0.62803238     0.15500
H595        H  0.38142405  0.61890480  0.61142272     0.01300
H596        H  0.39830407  0.69827660  0.63513417     0.15900
H597        H  0.40874300  0.64107601  0.68898262     0.15600
C598        C  0.35321299  0.58982217  0.33872598     0.87400
C599        C  0.37195975  0.60930540  0.32507732    -0.52800
C600        C  0.38663395  0.62437421  0.34156102     0.10400
C601        C  0.38282199  0.61756060  0.37060504     0.21300
C602        C  0.37261764  0.57365993  0.35553589    -0.53500
C603        C  0.38824745  0.58787838  0.37243142     0.10500
C604        C  0.33811152  0.60628964  0.35874132    -0.53100
C605        C  0.35319942  0.62014370  0.37563285     0.11000
H606        H  0.37644588  0.60987088  0.30459933     0.15500
H607        H  0.39503292  0.63014230  0.38331050     0.01300
H608        H  0.37347854  0.55257773  0.35436796     0.15900
H609        H  0.31683499  0.60594555  0.36034857     0.15600
C610        C  0.58028412  0.35105256  0.34715865     0.87400
C611        C  0.60150059  0.33618330  0.36282096    -0.52800
C612        C  0.61689278  0.35144002  0.37850479     0.10400
C613        C  0.61078055  0.38086293  0.37612256     0.21300
C614        C  0.56550055  0.36751196  0.36746623    -0.53500
C615        C  0.58122560  0.38324891  0.38245277     0.10500
C616        C  0.59662849  0.37090686  0.33181731    -0.53100
C617        C  0.61261141  0.38654056  0.34646495     0.11000
H618        H  0.60553519  0.31556611  0.36105206     0.15500
H619        H  0.62356598  0.39332312  0.38852380     0.01300
H620        H  0.54424863  0.36757499  0.36908336     0.15900
H621        H  0.59575903  0.37242194  0.31063126     0.15600
C622        C  0.34238385  0.35730602  0.57376774     0.87400
C623        C  0.33098054  0.37307367  0.59693591    -0.52800
C624        C  0.34899991  0.38646869  0.61149358     0.10400
C625        C  0.37752439  0.38137093  0.60276711     0.21300
C626        C  0.35965541  0.37708903  0.55885086    -0.53500
C627        C  0.37833657  0.38991505  0.57363250     0.10500
C628        C  0.36196378  0.33916194  0.58708884    -0.53100
C629        C  0.38035117  0.35119698  0.60194927     0.11000
H630        H  0.31072306  0.37378202  0.60269704     0.15500
H631        H  0.39158983  0.39140330  0.61576759     0.01300
H632        H  0.35783432  0.37956341  0.53787075     0.15900
H633        H  0.36119801  0.31804813  0.58518773     0.15600
O634        O  0.47731839  0.45464080  0.51981220    -0.77600
C635        C  0.53229680  0.45930506  0.45272242     0.83500
O636        O  0.54694732  0.51006423  0.55002294    -0.78700
O637        O  0.54354708  0.54359491  0.45975998    -0.80100
O638        O  0.44985233  0.52920855  0.46803699    -0.79900
O639        O  0.44599603  0.48459996  0.51737174    -0.78600
Zn640      Zn  0.51047834  0.47261234  0.50695460     1.55700
O641        O  0.48301898  0.53023119  0.43967687    -0.80000
Cd642      Cd  0.46639380  0.51639754  0.50266439     1.59700
Cd643      Cd  0.52596587  0.53306563  0.52280439     1.59600
O644        O  0.46095372  0.54602615  0.52900449    -0.80000
O645        O  0.50468645  0.50930991  0.49894757    -1.90500
Cd646      Cd  0.51435888  0.51602237  0.46170908     1.59900
O647        O  0.50056422  0.55844262  0.54314415    -0.79900
O648        O  0.52954717  0.48269937  0.44480097    -0.78600
C649        C  0.54917660  0.48524797  0.55157562     0.84000
C650        C  0.45359290  0.46170598  0.52343230     0.83600
O651        O  0.52511166  0.45283403  0.47571192    -0.77500
C652        C  0.45909041  0.53459275  0.44551901     0.84400
O653        O  0.53675569  0.47002822  0.53617455    -0.77600
C654        C  0.47550538  0.56034380  0.54332167     0.84600
C655        C  0.55712538  0.55677346  0.47601972     0.84900
O656        O  0.55313225  0.55518246  0.50071367    -0.80000
O657        O  0.48140307  0.71045838  0.75640705    -0.77600
C658        C  0.55014325  0.70406306  0.80696638     0.83500
O659        O  0.46936797  0.73877583  0.85050177    -0.78700
O660        O  0.54940168  0.78882385  0.81548311    -0.80100
O661        O  0.50559772  0.79200889  0.74413031    -0.79900
O662        O  0.46154709  0.74741587  0.74453227    -0.78600
Zn663      Zn  0.49397122  0.71885591  0.79298572     1.55700
O664        O  0.54464527  0.77396983  0.75247890    -0.80000
Cd665      Cd  0.47951359  0.77420474  0.76914552     1.59700
Cd666      Cd  0.49057289  0.76820538  0.83155244     1.59600
O667        O  0.45372235  0.80187240  0.78574837    -0.80000
O668        O  0.49993631  0.75535192  0.79613703    -1.90500
Cd669      Cd  0.53771469  0.76026558  0.79030261     1.59900
O670        O  0.46458508  0.79921789  0.82801907    -0.79900
O671        O  0.55868782  0.72688370  0.80167347    -0.78600
C672        C  0.45963693  0.71789407  0.84072944     0.84000
C673        C  0.46720796  0.72348216  0.74045847     0.83600
O674        O  0.52605249  0.69818975  0.80367728    -0.77500
C675        C  0.52968912  0.78830870  0.73840207     0.84400
O676        O  0.46618295  0.70922724  0.81833923    -0.77600
C677        C  0.45147775  0.80967079  0.80946689     0.84600
C678        C  0.54448985  0.79295406  0.83954391     0.84900
O679        O  0.52417490  0.78313733  0.85053763    -0.80000
O680        O  0.25407628  0.99054906  0.20620634    -0.77600
C681        C  0.30650628  0.05712076  0.19721119     0.83500
O682        O  0.34960998  0.97781039  0.23092521    -0.78700
O683        O  0.31801747  0.05764298  0.28281849    -0.80100
O684        O  0.24404350  0.01814622  0.28889471    -0.79900
O685        O  0.24233775  0.97258823  0.24436494    -0.78600
Zn686      Zn  0.29122681  0.00199731  0.21346493     1.55700
O687        O  0.25375087  0.05424881  0.26677122    -0.80000
Cd688      Cd  0.26777001  0.99059629  0.27069741     1.59700
Cd689      Cd  0.33065641  0.99743588  0.26135552     1.59600
O690        O  0.28430336  0.96440803  0.29807151    -0.80000
O691        O  0.29533518  0.00857616  0.24993342    -1.90500
Cd692      Cd  0.29174801  0.04636874  0.25440661     1.59900
O693        O  0.32704028  0.97035923  0.29084342    -0.79900
O694        O  0.30257907  0.06593994  0.22025142    -0.78600
C695        C  0.33859635  0.96699993  0.21118999     0.84000
C696        C  0.23826577  0.97715381  0.22009687     0.83600
O697        O  0.30221131  0.03323827  0.19168239    -0.77500
C698        C  0.23877843  0.04159654  0.28229367     0.84400
O699        O  0.31546941  0.97294302  0.20380206    -0.77600
C700        C  0.30839458  0.95922748  0.30308317     0.84600
C701        C  0.34097825  0.04946295  0.28848358     0.84900
O702        O  0.35035423  0.02842404  0.27882869    -0.80000
O703        O  0.18690957  0.80268460  0.97268707    -0.77600
C704        C  0.21813558  0.74306103  0.03049156     0.83500
O705        O  0.22724297  0.85369316  0.02878587    -0.78700
O706        O  0.29470027  0.78980963  0.04098905    -0.80100
O707        O  0.26286955  0.75635910  0.95228502    -0.79900
O708        O  0.21524287  0.80169906  0.94016749    -0.78600
Zn709      Zn  0.20936163  0.79540462  0.00466495     1.55700
O710        O  0.28736489  0.74946068  0.98759858    -0.80000
Cd711      Cd  0.24984772  0.79389025  0.95965401     1.59700
Cd712      Cd  0.25731892  0.83514367  0.00730128     1.59600
O713        O  0.27658091  0.82043582  0.94624768    -0.80000
O714        O  0.24591248  0.79952973  0.99732735    -1.90500
Cd715      Cd  0.26802982  0.77271427  0.01470174     1.59900
O716        O  0.27444029  0.85365534  0.97475128    -0.79900
O717        O  0.24292478  0.74637461  0.03207885    -0.78600
C718        C  0.20651808  0.84359504  0.03878178     0.84000
C719        C  0.19195233  0.80519882  0.94840751     0.83600
O720        O  0.20330711  0.75978973  0.01939691    -0.77500
C721        C  0.27970488  0.74275802  0.96476702     0.84400
O722        O  0.19857346  0.82114268  0.03174176    -0.77600
C723        C  0.28258784  0.84353950  0.95328840     0.84600
C724        C  0.29965635  0.81386131  0.04550788     0.84900
O725        O  0.28740715  0.83215036  0.03390099    -0.80000
C726        C  0.34746478  0.92853231  0.83845972     0.87400
C727        C  0.36694895  0.94533993  0.85371822    -0.52800
C728        C  0.38153230  0.93204638  0.87160552     0.10400
C729        C  0.37615544  0.90213241  0.87198920     0.21300
C730        C  0.36462704  0.90676392  0.82602852    -0.53500
C731        C  0.37999827  0.89313467  0.84335933     0.10500
C732        C  0.33200228  0.91388721  0.85954837    -0.53100
C733        C  0.34625393  0.89921354  0.87677038     0.11000
H734        H  0.36826818  0.96636213  0.85145269     0.15500
H735        H  0.38860563  0.89111209  0.88574684     0.01300
H736        H  0.36462551  0.90143656  0.80567164     0.15900
H737        H  0.31080112  0.91545407  0.86073429     0.15600
C738        C  0.65939386  0.85663504  0.92206847     0.87400
C739        C  0.67235728  0.87333729  0.90087601    -0.52800
C740        C  0.65580538  0.88962000  0.88746668     0.10400
C741        C  0.62676303  0.88710756  0.89644924     0.21300
C742        C  0.64428204  0.87613797  0.93953667    -0.53500
C743        C  0.62725515  0.89207387  0.92632594     0.10500
C744        C  0.63702232  0.84225530  0.90790919    -0.53100
C745        C  0.62030117  0.85776153  0.89411684     0.11000
H746        H  0.69318589  0.87199768  0.89659908     0.15500
H747        H  0.61275376  0.89986701  0.88584987     0.01300
H748        H  0.64484219  0.87616729  0.96068702     0.15900
H749        H  0.63467917  0.82119556  0.90839091     0.15600
C750        C  0.41746308  0.84762031  0.14861001     0.87400
C751        C  0.39745869  0.83437092  0.13030672    -0.52800
C752        C  0.38179586  0.85102658  0.11646502     0.10400
C753        C  0.38826583  0.87996764  0.12153138     0.21300
C754        C  0.43297898  0.86636273  0.13037093    -0.53500
C755        C  0.41783249  0.88274108  0.11509115     0.10500
C756        C  0.40164548  0.86671558  0.16522583    -0.53100
C757        C  0.38670303  0.88375761  0.15160644     0.11000
H758        H  0.39547816  0.81332995  0.12892172     0.15500
H759        H  0.37499138  0.89251719  0.11025568     0.01300
H760        H  0.45394995  0.86864748  0.13070630     0.15900
H761        H  0.40320012  0.86759446  0.18644372     0.15600
C762        C  0.34066288  0.16085246  0.08338388     0.87400
C763        C  0.35470925  0.14149294  0.06474074    -0.52800
C764        C  0.37327036  0.12597860  0.07649893     0.10400
C765        C  0.37587488  0.13115439  0.10623547     0.21300
C766        C  0.32975307  0.14377295  0.10533200    -0.53500
C767        C  0.34763632  0.12774623  0.11715275     0.10500
C768        C  0.36373865  0.17576450  0.09579848    -0.53100
C769        C  0.38184795  0.16059618  0.10806362     0.11000
H770        H  0.35159509  0.14077576  0.04387269     0.15500
H771        H  0.39099268  0.11902497  0.11600486     0.01300
H772        H  0.30914700  0.14402384  0.11075451     0.15900
H773        H  0.36557717  0.19686715  0.09519153     0.15600
C774        C  0.58246009  0.16585090  0.84718657     0.87400
C775        C  0.56507685  0.15358857  0.86867768    -0.52800
C776        C  0.57704552  0.13523546  0.88445787     0.10400
C777        C  0.60693247  0.13319255  0.87787733     0.21300
C778        C  0.60402122  0.17853264  0.86375321    -0.53500
C779        C  0.61729209  0.16171603  0.87941522     0.10500
C780        C  0.59543232  0.14298408  0.83300190    -0.53100
C781        C  0.60806753  0.12569543  0.84871268     0.11000
H782        H  0.54572074  0.16121655  0.87193385     0.15500
H783        H  0.61829893  0.11920802  0.88952588     0.01300
H784        H  0.60756089  0.19938427  0.86459756     0.15900
H785        H  0.59467478  0.14072677  0.81185918     0.15600
C786        C  0.65253157  0.08776014  0.15603495     0.87400
C787        C  0.63640679  0.10983298  0.16896774    -0.52800
C788        C  0.62118220  0.12412371  0.15219542     0.10400
C789        C  0.62486979  0.11603195  0.12330314     0.21300
C790        C  0.63258695  0.07221827  0.13953324    -0.53500
C791        C  0.61772911  0.08664499  0.12234637     0.10500
C792        C  0.66898040  0.10266362  0.13598819    -0.53100
C793        C  0.65498817  0.11694510  0.11855983     0.11000
H794        H  0.63764859  0.11545504  0.18926979     0.15500
H795        H  0.61314064  0.12838604  0.11015123     0.01300
H796        H  0.63134234  0.05113834  0.14076813     0.15900
H797        H  0.69030753  0.10207893  0.13558067     0.15600
O798        O  0.47582165  0.98697537  0.94112517    -0.77600
C799        C  0.52651267  0.05760690  0.95232541     0.83500
O800        O  0.54615712  0.96216786  0.99990526    -0.78700
O801        O  0.53025959  0.04914471  0.03650497    -0.80100
O802        O  0.44091708  0.03249736  0.01977209    -0.79900
O803        O  0.44285255  0.99026288  0.96897211    -0.78600
Zn804      Zn  0.50753382  0.00149058  0.96138728     1.55700
O805        O  0.47023426  0.06464708  0.01892956    -0.80000
Cd806      Cd  0.46078055  0.00110907  0.00341235     1.59700
Cd807      Cd  0.52040630  0.98524612  0.02270052     1.59600
O808        O  0.45594029  0.97066482  0.02877223    -0.80000
O809        O  0.49880176  0.00791661  0.99817238    -1.90500
Cd810      Cd  0.50401341  0.04557095  0.00656885     1.59900
O811        O  0.49521506  0.96097017  0.04517177    -0.79900
O812        O  0.52064987  0.06486329  0.97541025    -0.78600
C813        C  0.55005192  0.96114853  0.97514270     0.84000
C814        C  0.45150307  0.98401837  0.94648521     0.83600
O815        O  0.52187375  0.03454543  0.94406405    -0.77500
C816        C  0.44737229  0.05610282  0.02421596     0.84400
O817        O  0.53662162  0.97490513  0.95923893    -0.77600
C818        C  0.47026059  0.95764407  0.04443221     0.84600
C819        C  0.54454499  0.03408588  0.05020849     0.84900
O820        O  0.54333172  0.00922257  0.04781764    -0.80000
O821        O  0.98080069  0.80334676  0.24981476    -0.77600
C822        C  0.05014750  0.81450691  0.20194704     0.83500
O823        O  0.96890980  0.77928558  0.15615185    -0.78700
O824        O  0.05215162  0.73065830  0.18786013    -0.80100
O825        O  0.01232902  0.72183020  0.26072279    -0.79900
O826        O  0.96558281  0.76469581  0.26301409    -0.78600
Zn827      Zn  0.99468203  0.79701230  0.21404934     1.55700
O828        O  0.04884351  0.74377447  0.25108429    -0.80000
Cd829      Cd  0.98430583  0.73959192  0.23732885     1.59700
Cd830      Cd  0.99052448  0.74903657  0.17425426     1.59600
O831        O  0.95915763  0.71158586  0.22090391    -0.80000
O832        O  0.00154755  0.76077321  0.20971145    -1.90500
Cd833      Cd  0.03964661  0.75739708  0.21422570     1.59900
O834        O  0.96429147  0.71846891  0.17798964    -0.79900
O835        O  0.05921572  0.79155379  0.20488142    -0.78600
C836        C  0.96007306  0.80048131  0.16619732     0.84000
C837        C  0.96859242  0.78921067  0.26627667     0.83600
O838        O  0.02605185  0.81945799  0.20611262    -0.77500
C839        C  0.03619023  0.72781768  0.26544469     0.84400
O840        O  0.96776044  0.80817353  0.18857064    -0.77600
C841        C  0.95402513  0.70610641  0.19701070     0.84600
C842        C  0.04509936  0.72509155  0.16462385     0.84900
O843        O  0.02332579  0.73302649  0.15478034    -0.80000
O844        O  0.79323234  0.26114257  0.97528052    -0.77600
C845        C  0.80399692  0.20940726  0.04291215     0.83500
O846        O  0.77081474  0.16602970  0.96617705    -0.78700
O847        O  0.71807431  0.20031481  0.04569462    -0.80100
O848        O  0.70944820  0.26821022  0.00453469    -0.79900
O849        O  0.75424935  0.27365072  0.96013519    -0.78600
Zn850      Zn  0.78714375  0.22466564  0.98823762     1.55700
O851        O  0.73585083  0.26302622  0.03884594    -0.80000
Cd852      Cd  0.72935426  0.24594759  0.97709994     1.59700
Cd853      Cd  0.74038044  0.18352883  0.98754659     1.59600
O854        O  0.70303085  0.22689614  0.95164926    -0.80000
O855        O  0.75103073  0.21963516  0.99534337    -1.90500
Cd856      Cd  0.74698340  0.22483932  0.03273936     1.59900
O857        O  0.70890598  0.18482821  0.96212875    -0.79900
O858        O  0.78101877  0.21326144  0.05199815    -0.78600
C859        C  0.79090950  0.17658151  0.95543949     0.84000
C860        C  0.77877139  0.27788495  0.96367860     0.83600
O861        O  0.80948679  0.21451803  0.01917212    -0.77500
C862        C  0.71808658  0.27582779  0.02673999     0.84400
O863        O  0.79775447  0.19976981  0.96096799    -0.77600
C864        C  0.69718948  0.20268765  0.94930581     0.84600
C865        C  0.71605358  0.17584846  0.04190303     0.84900
O866        O  0.72708085  0.16505581  0.02209438    -0.80000
O867        O  0.24352854  0.02547422  0.70129530    -0.77600
C868        C  0.19700946  0.95410569  0.69249413     0.83500
O869        O  0.14730231  0.03337009  0.72469655    -0.78700
O870        O  0.18091974  0.95535238  0.77754311    -0.80100
O871        O  0.25408851  0.99872064  0.78356448    -0.79900
O872        O  0.25360593  0.04402654  0.73965370    -0.78600
Zn873      Zn  0.20757842  0.01060625  0.70808702     1.55700
O874        O  0.24527163  0.95962522  0.76627441    -0.80000
Cd875      Cd  0.22924238  0.02447867  0.76503893     1.59700
Cd876      Cd  0.16706426  0.01527171  0.75571438     1.59600
O877        O  0.21213369  0.04985292  0.79225693    -0.80000
O878        O  0.20289522  0.00449410  0.74462590    -1.90500
Cd879      Cd  0.20812698  0.96665657  0.75026420     1.59900
O880        O  0.16947743  0.04292043  0.78520750    -0.79900
O881        O  0.19983098  0.94584062  0.71591532    -0.78600
C882        C  0.15765910  0.04282888  0.70401227     0.84000
C883        C  0.25817960  0.03987232  0.71550100     0.83600
O884        O  0.20084643  0.97803201  0.68700629    -0.77500
C885        C  0.25937664  0.97458216  0.78061254     0.84400
O886        O  0.18074948  0.03678192  0.69665886    -0.77600
C887        C  0.18803826  0.05416922  0.79759910     0.84600
C888        C  0.15813734  0.96352042  0.78377910     0.84900
O889        O  0.14834325  0.98436693  0.77414065    -0.80000
C890        C  0.16028136  0.15792319  0.91607363     0.87400
C891        C  0.14436779  0.13827971  0.93267945    -0.52800
C892        C  0.12617160  0.12375957  0.91917994     0.10400
C893        C  0.12657954  0.12944013  0.88943259     0.21300
C894        C  0.17292187  0.13963160  0.89545893    -0.53500
C895        C  0.15540171  0.12521970  0.88106493     0.10500
C896        C  0.13967241  0.17352501  0.90101311    -0.53100
C897        C  0.12196438  0.15906094  0.88745581     0.11000
H898        H  0.14740943  0.13579595  0.95348424     0.15500
H899        H  0.11258051  0.11764255  0.87774093     0.01300
H900        H  0.19383097  0.13656533  0.89337590     0.15900
H901        H  0.13868082  0.19469803  0.90165253     0.15600
C902        C  0.15329046  0.92937252  0.15879735     0.87400
C903        C  0.13341385  0.94501090  0.14196046    -0.52800
C904        C  0.11690110  0.92988110  0.12678292     0.10400
C905        C  0.12254036  0.90028405  0.12965421     0.21300
C906        C  0.13621296  0.91007858  0.17413696    -0.53500
C907        C  0.12033155  0.89451897  0.15933199     0.10500
C908        C  0.16748813  0.91348981  0.13771211    -0.53100
C909        C  0.15192456  0.89806127  0.12280924     0.11000
H910        H  0.13368730  0.96593691  0.13972096     0.15500
H911        H  0.10992563  0.88728648  0.11776047     0.01300
H912        H  0.13636479  0.90947473  0.19537081     0.15900
H913        H  0.18843209  0.91519514  0.13402782     0.15600
C914        C  0.91672034  0.17002545  0.14690260     0.87400
C915        C  0.93349719  0.15168400  0.12940959    -0.52800
C916        C  0.91923387  0.13406690  0.11476915     0.10400
C917        C  0.88946019  0.13584171  0.11993854     0.21300
C918        C  0.89646504  0.18193838  0.12821523    -0.53500
C919        C  0.88228501  0.16452625  0.11365363     0.10500
C920        C  0.90149516  0.15064408  0.16361767    -0.53100
C921        C  0.88715953  0.13303272  0.15009581     0.11000
H922        H  0.95464745  0.15080691  0.12953377     0.15500
H923        H  0.87794237  0.12160888  0.10851665     0.01300
H924        H  0.89353182  0.20286744  0.12687785     0.15900
H925        H  0.90235589  0.15048011  0.18489285     0.15600
C926        C  0.84110230  0.85975244  0.08291324     0.87400
C927        C  0.82784072  0.87786116  0.10282303    -0.52800
C928        C  0.84443607  0.89326176  0.11709615     0.10400
C929        C  0.87366699  0.88952519  0.10936267     0.21300
C930        C  0.85781901  0.87829939  0.06566266    -0.53500
C931        C  0.87476033  0.89426746  0.07935663     0.10500
C932        C  0.86247796  0.84499845  0.09789458    -0.53100
C933        C  0.87916144  0.86002066  0.11197745     0.11000
H934        H  0.80666355  0.87857672  0.10497440     0.15500
H935        H  0.88725766  0.90175672  0.12107077     0.01300
H936        H  0.85866768  0.87747173  0.04456521     0.15900
H937        H  0.86487782  0.82396200  0.09673563     0.15600
C938        C  0.07914267  0.84727200  0.84698743     0.87400
C939        C  0.10079815  0.83488591  0.86317448    -0.52800
C940        C  0.11414669  0.85165856  0.87874771     0.10400
C941        C  0.10454864  0.88037880  0.87682213     0.21300
C942        C  0.06172275  0.86154529  0.86754299    -0.53500
C943        C  0.07484730  0.87940780  0.88308511     0.10500
C944        C  0.09207060  0.87002092  0.83238440    -0.53100
C945        C  0.10530046  0.88744043  0.84755957     0.11000
H946        H  0.10498213  0.81409819  0.86275694     0.15500
H947        H  0.11576589  0.89437800  0.88876926     0.01300
H948        H  0.04085788  0.85897548  0.86914738     0.15900
H949        H  0.09062545  0.87224158  0.81128693     0.15600
C950        C  0.84903094  0.08862802  0.84106737     0.87400
C951        C  0.86617736  0.10828902  0.82614410    -0.52800
C952        C  0.88200954  0.12361314  0.84137044     0.10400
C953        C  0.87963488  0.11723577  0.87096323     0.21300
C954        C  0.86876553  0.07274819  0.85792572    -0.53500
C955        C  0.88517041  0.08754801  0.87348172     0.10500
C956        C  0.83472280  0.10423319  0.86214306    -0.53100
C957        C  0.85015625  0.11946789  0.87732003     0.11000
H958        H  0.86580471  0.10966846  0.80494845     0.15500
H959        H  0.89209431  0.12987863  0.88344699     0.01300
H960        H  0.86828533  0.05183680  0.86018119     0.15900
H961        H  0.81370175  0.10272386  0.86548354     0.15600
O962        O  0.97971477  0.06580614  0.02310050    -0.77600
C963        C  0.05286320  0.05517697  0.97526993     0.83500
O964        O  0.95615258  0.01063074  0.95076313    -0.78700
O965        O  0.04183751  0.97169207  0.96699233    -0.80100
O966        O  0.02322907  0.98812822  0.05873264    -0.79900
O967        O  0.97875050  0.03700945  0.05548662    -0.78600
Zn968      Zn  0.99573521  0.04626423  0.99230492     1.55700
O969        O  0.05524124  0.98526819  0.02922206    -0.80000
Cd970      Cd  0.99223968  0.00359138  0.03762156     1.59700
Cd971      Cd  0.97768347  0.98665381  0.97683116     1.59600
O972        O  0.96257522  0.97685487  0.04061375    -0.80000
O973        O  0.00078097  0.00943628  0.99996464    -1.90500
Cd974      Cd  0.03863640  0.00037839  0.99498060     1.59900
O975        O  0.95140118  0.96465362  0.00015061    -0.79900
O976        O  0.05983980  0.03187719  0.98055042    -0.78600
C977        C  0.95566592  0.03550753  0.94846776     0.84000
C978        C  0.97385197  0.05966287  0.04656274     0.83600
O979        O  0.02961468  0.06313761  0.98004714    -0.77500
C980        C  0.04641217  0.98147217  0.05230199     0.84400
O981        O  0.96994067  0.05009994  0.96281230    -0.77600
C982        C  0.94876807  0.96314296  0.02503277     0.84600
C983        C  0.02630812  0.95740121  0.95369827     0.84900
O984        O  0.00139134  0.96036153  0.95540506    -0.80000
O985        O  0.20253162  0.26219913  0.97850175    -0.77600
C986        C  0.19378499  0.31073595  0.04964897     0.83500
O987        O  0.22919093  0.35659498  0.97207462    -0.78700
O988        O  0.27848772  0.32195998  0.05225295    -0.80100
O989        O  0.28588382  0.24974318  0.01186382    -0.79900
O990        O  0.24185760  0.24748199  0.96629924    -0.78600
Zn991      Zn  0.20974568  0.29817986  0.99346418     1.55700
O992        O  0.26329775  0.25908120  0.04792775    -0.80000
Cd993      Cd  0.26740026  0.27306781  0.98428000     1.59700
Cd994      Cd  0.25938087  0.33604974  0.99105687     1.59600
O995        O  0.29477960  0.28876801  0.95835679    -0.80000
O996        O  0.24649225  0.30103274  0.00126078    -1.90500
Cd997      Cd  0.25069531  0.29638983  0.03920926     1.59900
O998        O  0.28876810  0.33167908  0.96361416    -0.79900
O999        O  0.21675940  0.30647721  0.05849851    -0.78600
C1000       C  0.20806072  0.34773394  0.96170030     0.84000
C1001       C  0.21697740  0.24496020  0.96753926     0.83600
O1002       O  0.18812811  0.30728524  0.02555340    -0.77500
C1003       C  0.27945861  0.24472602  0.03544417     0.84400
O1004       O  0.19949451  0.32498051  0.96680921    -0.77600
C1005       C  0.30049091  0.31243185  0.95305032     0.84600
C1006       C  0.28585567  0.34440253  0.04460436     0.84900
O1007       O  0.27790278  0.35416479  0.02293157    -0.80000
O1008       O  0.74764315  0.48982912  0.70461761    -0.77600
C1009       C  0.79657052  0.55974854  0.69264543     0.83500
O1010       O  0.84475213  0.48327565  0.72521532    -0.78700
O1011       O  0.80974414  0.56190760  0.77720821    -0.80100
O1012       O  0.74271545  0.51746358  0.78817370    -0.79900
O1013       O  0.73969870  0.47155038  0.74357015    -0.78600
Zn1014     Zn  0.78435768  0.50435746  0.70968889     1.55700
O1015       O  0.74727662  0.55498357  0.76636136    -0.80000
Cd1016     Cd  0.76594745  0.49117770  0.76781421     1.59700
Cd1017     Cd  0.82728875  0.50429969  0.75563330     1.59600
O1018       O  0.78662452  0.46640282  0.79360376    -0.80000
O1019       O  0.79035960  0.51139886  0.74573703    -1.90500
Cd1020     Cd  0.78378005  0.54867556  0.75005855     1.59900
O1021       O  0.82809717  0.47836866  0.78635888    -0.79900
O1022       O  0.79251479  0.56867234  0.71562598    -0.78600
C1023       C  0.83381812  0.47198498  0.70564461     0.84000
C1024       C  0.73365628  0.47557301  0.71961910     0.83600
O1025       O  0.79275478  0.53577804  0.68724935    -0.77500
C1026       C  0.73589335  0.54103038  0.78364684     0.84400
O1027       O  0.81042765  0.47768869  0.69900293    -0.77600
C1028       C  0.81121934  0.46482429  0.79867920     0.84600
C1029       C  0.83402811  0.55791552  0.78106262     0.84900
O1030       O  0.84544211  0.53834232  0.77036745    -0.80000
O1031       O  0.97489636  0.19995804  0.79452189    -0.77600
C1032       C  0.03540407  0.22759291  0.73480326     0.83500
O1033       O  0.03094805  0.23908722  0.84475841    -0.78700
O1034       O  0.04571895  0.30509474  0.78139925    -0.80100
O1035       O  0.95556088  0.27799227  0.74796869    -0.79900
O1036       O  0.94212801  0.22835274  0.79450629    -0.78600
Zn1037     Zn  0.00653390  0.22170258  0.78608241     1.55700
O1038       O  0.99440727  0.29520956  0.73824250    -0.80000
Cd1039     Cd  0.96250039  0.26258555  0.78495219     1.59700
Cd1040     Cd  0.01026407  0.26935545  0.82629552     1.59600
O1041       O  0.94975711  0.28947184  0.81134370    -0.80000
O1042       O  0.00041408  0.25799451  0.79036613    -1.90500
Cd1043     Cd  0.02047372  0.27767201  0.76359038     1.59900
O1044       O  0.97742354  0.28585307  0.84519763    -0.79900
O1045       O  0.03942370  0.25188172  0.73860645    -0.78600
C1046       C  0.03996465  0.21811531  0.83451999     0.84000
C1047       C  0.95087098  0.20534323  0.79850765     0.83600
O1048       O  0.02167064  0.21429016  0.75078846    -0.77500
C1049       C  0.97014047  0.29183452  0.73308163     0.84400
O1050       O  0.03252398  0.21077046  0.81200787    -0.77600
C1051       C  0.95618431  0.29454206  0.83488326     0.84600
C1052       C  0.04954537  0.31068380  0.80556260     0.84900
O1053       O  0.03741232  0.29900578  0.82389119    -0.80000
C1054       C  0.83992860  0.36422315  0.91707631     0.87400
C1055       C  0.85541189  0.38354652  0.93423031    -0.52800
C1056       C  0.87527478  0.39618076  0.92160617     0.10400
C1057       C  0.87690411  0.38968703  0.89180572     0.21300
C1058       C  0.82991723  0.38227197  0.89497299    -0.53500
C1059       C  0.84896705  0.39498579  0.88114797     0.10500
C1060       C  0.86108188  0.34710817  0.90439370    -0.53100
C1061       C  0.87998296  0.35971259  0.89031162     0.11000
H1062       H  0.85133224  0.38687311  0.95480544     0.15500
H1063       H  0.89206722  0.40067150  0.88104130     0.01300
H1064       H  0.80970263  0.38779438  0.89211540     0.15900
H1065       H  0.86097762  0.32606556  0.90676717     0.15600
C1066       C  0.15053533  0.42911625  0.83667176     0.87400
C1067       C  0.13339765  0.40779291  0.82451686    -0.52800
C1068       C  0.11919093  0.39356913  0.84176587     0.10400
C1069       C  0.12296822  0.40222480  0.87046678     0.21300
C1070       C  0.13110033  0.44579719  0.85276283    -0.53500
C1071       C  0.11660271  0.43180398  0.87050730     0.10500
C1072       C  0.16665634  0.41610208  0.85845084    -0.53100
C1073       C  0.15305802  0.40117626  0.87596123     0.11000
H1074       H  0.13265892  0.40415914  0.80356985     0.15500
H1075       H  0.11058133  0.39055305  0.88375791     0.01300
H1076       H  0.12996785  0.46678676  0.85252786     0.15900
H1077       H  0.18733310  0.42056224  0.86062713     0.15600
C1078       C  0.91723654  0.67028507  0.85143133     0.87400
C1079       C  0.89446132  0.68224746  0.86751671    -0.52800
C1080       C  0.88074637  0.66504330  0.88270813     0.10400
C1081       C  0.88969058  0.63653410  0.87878206     0.21300
C1082       C  0.93319288  0.65464234  0.87204727    -0.53500
C1083       C  0.91915582  0.63651622  0.88621585     0.10500
C1084       C  0.90331489  0.64957641  0.83507247    -0.53100
C1085       C  0.88925841  0.63191732  0.84874793     0.11000
H1086       H  0.88848748  0.70235079  0.86758679     0.15500
H1087       H  0.87768722  0.62282987  0.89024602     0.01300
H1088       H  0.95423553  0.65703762  0.87421584     0.15900
H1089       H  0.90428351  0.64900916  0.81381098     0.15600
C1090       C  0.07777938  0.34956121  0.15266155     0.87400
C1091       C  0.06177765  0.36713150  0.13370091    -0.52800
C1092       C  0.07679960  0.38349921  0.11839476     0.10400
C1093       C  0.10657470  0.38100548  0.12425296     0.21300
C1094       C  0.09766129  0.33576383  0.13490918    -0.53500
C1095       C  0.11321109  0.35178571  0.12024831     0.10500
C1096       C  0.09316432  0.36996504  0.16829300    -0.53100
C1097       C  0.10845627  0.38590418  0.15386365     0.11000
H1098       H  0.04063732  0.36870152  0.13364225     0.15500
H1099       H  0.11937873  0.39430198  0.11301317     0.01300
H1100       H  0.09868597  0.31465800  0.13377893     0.15900
H1101       H  0.09132111  0.37237410  0.18935433     0.15600
C1102       C  0.85146784  0.59158930  0.15760922     0.87400
C1103       C  0.87260655  0.57349156  0.14608772    -0.52800
C1104       C  0.89050212  0.58534509  0.12981336     0.10400
C1105       C  0.88643423  0.61536580  0.12851353     0.21300
C1106       C  0.86690192  0.61289424  0.17210598    -0.53500
C1107       C  0.88559052  0.62483610  0.15748773     0.10500
C1108       C  0.84008845  0.60672335  0.13410693    -0.53100
C1109       C  0.85813372  0.61845595  0.11847308     0.11000
H1110       H  0.87290185  0.55284469  0.15054781     0.15500
H1111       H  0.90049161  0.62603968  0.11601520     0.01300
H1112       H  0.86284431  0.61944372  0.19184299     0.15900
H1113       H  0.81920855  0.60860094  0.13023541     0.15600
C1114       C  0.16213106  0.65731002  0.08309535     0.87400
C1115       C  0.17347646  0.64038094  0.10551598    -0.52800
C1116       C  0.15525546  0.62726368  0.12019187     0.10400
C1117       C  0.12689069  0.63133275  0.11008103     0.21300
C1118       C  0.14717202  0.63688237  0.06703858    -0.53500
C1119       C  0.12815719  0.62404328  0.08053561     0.10500
C1120       C  0.14074290  0.67402208  0.09582108    -0.53100
C1121       C  0.12270738  0.66112326  0.11064585     0.11000
H1122       H  0.19399416  0.63578193  0.10791114     0.15500
H1123       H  0.11217794  0.62042687  0.12147624     0.01300
H1124       H  0.15089061  0.63300911  0.04648247     0.15900
H1125       H  0.13997131  0.69499501  0.09291109     0.15600
O1126       O  0.03121752  0.56271730  0.02171104    -0.77600
C1127       C  0.97512970  0.56230032  0.95477496     0.83500
O1128       O  0.95973681  0.50922737  0.04907262    -0.78700
O1129       O  0.96398895  0.47772774  0.95765530    -0.80100
O1130       O  0.05757813  0.48667940  0.97027190    -0.79900
O1131       O  0.06162125  0.53218540  0.01884304    -0.78600
Zn1132     Zn  0.99731769  0.54669496  0.00844860     1.55700
O1133       O  0.02591895  0.49096705  0.94043891    -0.80000
Cd1134     Cd  0.04055994  0.50068909  0.00444195     1.59700
Cd1135     Cd  0.98036145  0.48659708  0.02187191     1.59600
O1136       O  0.04419462  0.47163815  0.03213336    -0.80000
O1137       O  0.00274029  0.51007609  0.99926432    -1.90500
Cd1138     Cd  0.99385718  0.50513735  0.96143716     1.59900
O1139       O  0.00351319  0.46063025  0.04368243    -0.79900
O1140       O  0.97991093  0.53975183  0.94525598    -0.78600
C1141       C  0.95904478  0.53386406  0.05284868     0.84000
C1142       C  0.05480957  0.55520135  0.02532961     0.83600
O1143       O  0.98127922  0.56787477  0.97837617    -0.77500
C1144       C  0.04910590  0.48396200  0.94690974     0.84400
O1145       O  0.97209142  0.54939070  0.03844636    -0.77600
C1146       C  0.02837135  0.45799727  0.04571001     0.84600
C1147       C  0.95063348  0.46403122  0.97364768     0.84900
O1148       O  0.95417075  0.46518418  0.99841318    -0.80000
O1149       O  0.52786943  0.82110023  0.29597132    -0.77600
C1150       C  0.46678170  0.79247768  0.23590934     0.83500
O1151       O  0.47433800  0.78184363  0.34625151    -0.78700
O1152       O  0.45717729  0.71626383  0.28384349    -0.80100
O1153       O  0.54642042  0.74339026  0.24816990    -0.79900
O1154       O  0.56080578  0.79270020  0.29463410    -0.78600
Zn1155     Zn  0.49597780  0.79956679  0.28680266     1.55700
O1156       O  0.50731642  0.72460773  0.24153959    -0.80000
Cd1157     Cd  0.54035493  0.75848411  0.28536091     1.59700
Cd1158     Cd  0.49463427  0.75146970  0.32777571     1.59600
O1159       O  0.55332003  0.73071968  0.31107462    -0.80000
O1160       O  0.50272694  0.76334835  0.29169997    -1.90500
Cd1161     Cd  0.48175119  0.74352033  0.26599904     1.59900
O1162       O  0.52861514  0.73660226  0.34632430    -0.79900
O1163       O  0.46192297  0.76868489  0.24134440    -0.78600
C1164       C  0.46372159  0.80196218  0.33582192     0.84000
C1165       C  0.55204212  0.81560060  0.29924436     0.83600
O1166       O  0.48171904  0.80649950  0.25029766    -0.77500
C1167       C  0.53131971  0.72802713  0.23541898     0.84400
O1168       O  0.46902551  0.80957634  0.31274925    -0.77600
C1169       C  0.54876964  0.72658060  0.33519467     0.84600
C1170       C  0.45544225  0.70908196  0.30771032     0.84900
O1171       O  0.46858097  0.72021848  0.32587257    -0.80000
O1172       O  0.51649403  0.21190494  0.74871434    -0.77600
C1173       C  0.44725239  0.20300222  0.69741958     0.83500
O1174       O  0.53062110  0.23205548  0.65508592    -0.78700
O1175       O  0.44976307  0.28697950  0.68513658    -0.80100
O1176       O  0.48945527  0.29268772  0.75825055    -0.79900
O1177       O  0.53603116  0.24974808  0.75826252    -0.78600
Zn1178     Zn  0.50310904  0.21711197  0.71235720     1.55700
O1179       O  0.45288633  0.27087396  0.74914620    -0.80000
Cd1180     Cd  0.51604118  0.27463670  0.73331560     1.59700
Cd1181     Cd  0.50743786  0.26263603  0.67059790     1.59600
O1182       O  0.53949763  0.30224416  0.71458875    -0.80000
O1183       O  0.49780659  0.25316713  0.70678562    -1.90500
Cd1184     Cd  0.46042292  0.25899052  0.71136371     1.59900
O1185       O  0.53125310  0.29540849  0.67206599    -0.79900
O1186       O  0.43930179  0.22627549  0.70085177    -0.78600
C1187       C  0.53913801  0.21143587  0.66650337     0.84000
C1188       C  0.53118828  0.22584737  0.76342066     0.83600
O1189       O  0.47086475  0.19636981  0.70231443    -0.77500
C1190       C  0.46592878  0.28628249  0.76385150     0.84400
O1191       O  0.53097720  0.20446123  0.68886296    -0.77600
C1192       C  0.54246596  0.30813681  0.69043382     0.84600
C1193       C  0.45362827  0.28669652  0.66051392     0.84900
O1194       O  0.47307217  0.27425079  0.65057024    -0.80000
O1195       O  0.70413321  0.97825588  0.80952044    -0.77600
C1196       C  0.76316365  0.03955256  0.78215373     0.83500
O1197       O  0.65421884  0.03534600  0.76984736    -0.78700
O1198       O  0.71831614  0.04797976  0.70322988    -0.80100
O1199       O  0.75128666  0.95961219  0.73066295    -0.79900
O1200       O  0.70470697  0.94559506  0.78087526    -0.78600
Zn1201     Zn  0.71267627  0.01011679  0.78826911     1.55700
O1202       O  0.76215468  0.99931060  0.71678383    -0.80000
Cd1203     Cd  0.71373752  0.96597679  0.74618551     1.59700
Cd1204     Cd  0.67291836  0.01433940  0.74005915     1.59600
O1205       O  0.68653041  0.95398053  0.71882283    -0.80000
O1206       O  0.70847679  0.00380582  0.75172354    -1.90500
Cd1207     Cd  0.73505051  0.02444666  0.73244168     1.59900
O1208       O  0.65353013  0.98235972  0.72360320    -0.79900
O1209       O  0.75767474  0.04533295  0.75850270    -0.78600
C1210       C  0.66376162  0.04401323  0.79136423     0.84000
C1211       C  0.70071447  0.95427926  0.80402588     0.83600
O1212       O  0.74911874  0.02391817  0.79557102    -0.77500
C1213       C  0.76700531  0.97501770  0.71867370     0.84400
O1214       O  0.68620843  0.03650092  0.79932970    -0.77600
C1215       C  0.66317773  0.96145846  0.71381060     0.84600
C1216       C  0.69423433  0.05117384  0.69690696     0.84900
O1217       O  0.67575699  0.03993707  0.70925730    -0.80000
C1218       C  0.34261648  0.08946057  0.65721064     0.87400
C1219       C  0.36060579  0.07049739  0.64243916    -0.52800
C1220       C  0.37802146  0.08228836  0.62614785     0.10400
C1221       C  0.37521890  0.11243283  0.62508292     0.21300
C1222       C  0.36146791  0.10874578  0.67038821    -0.53500
C1223       C  0.37801036  0.12212168  0.65390492     0.10500
C1224       C  0.32944057  0.10454201  0.63469133    -0.53100
C1225       C  0.34629787  0.11684428  0.61824424     0.11000
H1226       H  0.35892053  0.04945311  0.64304962     0.15500
H1227       H  0.38772521  0.12185468  0.61034169     0.01300
H1228       H  0.36165968  0.11097038  0.69147509     0.15900
H1229       H  0.30837056  0.10505467  0.63145712     0.15600
C1230       C  0.57722119  0.84405118  0.65047680     0.87400
C1231       C  0.56140439  0.85973075  0.62989501    -0.52800
C1232       C  0.57583275  0.87723999  0.61576301     0.10400
C1233       C  0.60517983  0.87693852  0.62269596     0.21300
C1234       C  0.59949108  0.83122874  0.63489707    -0.53500
C1235       C  0.61369226  0.84787852  0.61988803     0.10500
C1236       C  0.59222631  0.86459261  0.66655635    -0.53100
C1237       C  0.60603756  0.88292322  0.65267677     0.11000
H1238       H  0.54034064  0.85780252  0.62731340     0.15500
H1239       H  0.61595634  0.89044989  0.60987615     0.01300
H1240       H  0.60532076  0.81108890  0.63587989     0.15900
H1241       H  0.59249482  0.86359083  0.68772989     0.15600
C1242       C  0.65616750  0.15518527  0.58116420     0.87400
C1243       C  0.67151578  0.13634660  0.59926346    -0.52800
C1244       C  0.65606737  0.11980043  0.61366069     0.10400
C1245       C  0.62642839  0.12376305  0.60857060     0.21300
C1246       C  0.63865157  0.13762345  0.56450422    -0.53500
C1247       C  0.62294910  0.12141344  0.57846687     0.10500
C1248       C  0.63738478  0.16875684  0.60037478    -0.53100
C1249       C  0.62156940  0.15288728  0.61494699     0.11000
H1250       H  0.69250030  0.13685143  0.60217058     0.15500
H1251       H  0.61450476  0.10997168  0.61994048     0.01300
H1252       H  0.63820412  0.13840242  0.54325854     0.15900
H1253       H  0.63623760  0.18982477  0.60151532     0.15600
C1254       C  0.34230288  0.85369377  0.41863274     0.87400
C1255       C  0.35688792  0.87307499  0.43625745    -0.52800
C1256       C  0.37372038  0.88952011  0.42353192     0.10400
C1257       C  0.37382108  0.88534890  0.39342637     0.21300
C1258       C  0.32830713  0.87087990  0.39797748    -0.53500
C1259       C  0.34465212  0.88772092  0.38488923     0.10500
C1260       C  0.36341045  0.84027662  0.40212686    -0.53100
C1261       C  0.38032068  0.85626440  0.38957935     0.11000
H1262       H  0.35382206  0.87368140  0.45726135     0.15500
H1263       H  0.38733031  0.89840866  0.38261105     0.01300
H1264       H  0.30779915  0.86909175  0.39266843     0.15900
H1265       H  0.36476654  0.81924096  0.40014619     0.15600
C1266       C  0.65228190  0.93028662  0.34613696     0.87400
C1267       C  0.63493726  0.91040451  0.33129144    -0.52800
C1268       C  0.61793574  0.89656167  0.34683568     0.10400
C1269       C  0.62028727  0.90371427  0.37628742     0.21300
C1270       C  0.63291004  0.94719767  0.36158677    -0.53500
C1271       C  0.61620340  0.93367613  0.37757326     0.10500
C1272       C  0.66578998  0.91283173  0.36642907    -0.53100
C1273       C  0.64958858  0.89954862  0.38262759     0.11000
H1274       H  0.63682652  0.90619343  0.31059561     0.15500
H1275       H  0.60701067  0.89249006  0.38925624     0.01300
H1276       H  0.63254715  0.96829737  0.35989889     0.15900
H1277       H  0.68693092  0.91040654  0.36756375     0.15600
C1278       C  0.42403890  0.16675474  0.34876032     0.87400
C1279       C  0.40328430  0.18049886  0.36547526    -0.52800
C1280       C  0.38857344  0.16430573  0.38058809     0.10400
C1281       C  0.39693111  0.13515519  0.37878622     0.21300
C1282       C  0.44045661  0.15223188  0.36995519    -0.53500
C1283       C  0.42640455  0.13521828  0.38516618     0.10500
C1284       C  0.40898156  0.14525153  0.33425474    -0.53100
C1285       C  0.39576896  0.12773775  0.34944233     0.11000
H1286       H  0.40052369  0.20150320  0.36562903     0.15500
H1287       H  0.38608577  0.12207994  0.39198278     0.01300
H1288       H  0.46078440  0.15591379  0.37452990     0.15900
H1289       H  0.40902529  0.14416303  0.31303622     0.15600
O1290       O  0.51698828  0.94801632  0.52410884    -0.77600
C1291       C  0.44529334  0.96193499  0.47573616     0.83500
O1292       O  0.54102028  0.00698349  0.45405203    -0.78700
O1293       O  0.45592065  0.04599434  0.47071585    -0.80100
O1294       O  0.47244996  0.02216733  0.56183143    -0.79900
O1295       O  0.52129042  0.97700497  0.55608267    -0.78600
Zn1296     Zn  0.50241384  0.96929894  0.49342791     1.55700
O1297       O  0.44209807  0.02861730  0.53122228    -0.80000
Cd1298     Cd  0.50525917  0.01071820  0.54052967     1.59700
Cd1299     Cd  0.51964742  0.02919906  0.48074180     1.59600
O1300       O  0.53314685  0.03950581  0.54519887    -0.80000
O1301       O  0.49691373  0.00583322  0.50265601    -1.90500
Cd1302     Cd  0.45942524  0.01588726  0.49699644     1.59900
O1303       O  0.54557654  0.04990716  0.50458337    -0.79900
O1304       O  0.43844937  0.98511796  0.48150757    -0.78600
C1305       C  0.54230406  0.98237070  0.45041399     0.84000
C1306       C  0.52429376  0.95391035  0.54730385     0.83600
O1307       O  0.46853519  0.95357836  0.47987294    -0.77500
C1308       C  0.44952960  0.02961474  0.55503162     0.84400
O1309       O  0.52879699  0.96655477  0.46411736    -0.77600
C1310       C  0.54753175  0.05225724  0.52938883     0.84600
C1311       C  0.47224214  0.05981939  0.45802402     0.84900
O1312       O  0.49697500  0.05610115  0.45985482    -0.80000
C1313       C  0.43890730  0.11685259  0.40455516    -0.04400
C1314       C  0.45971222  0.10025404  0.39661324    -0.01500
C1315       C  0.47129125  0.08251935  0.41435231     0.03500
C1316       C  0.46176923  0.08038000  0.44016198    -0.04400
C1317       C  0.44076184  0.09656424  0.44814597    -0.01500
C1318       C  0.42936684  0.11458241  0.43050686     0.03500
C1319       C  0.46809697  0.09950139  0.36958376     0.38100
C1320       C  0.43085458  0.09488725  0.47474845     0.38100
C1321       C  0.40745359  0.13016946  0.43947283     0.36500
C1322       C  0.49206858  0.06529341  0.40540327     0.36500
N1323       N  0.38970253  0.14157653  0.44769138    -0.38300
N1324       N  0.50860599  0.05156688  0.39825652    -0.38300
N1325       N  0.42285607  0.09351519  0.49588991    -0.37700
N1326       N  0.47537826  0.09784387  0.34824103    -0.37700
C1327       C  0.59671939  0.94709589  0.39525972    -0.04400
C1328       C  0.60453645  0.96842090  0.41128183    -0.01500
C1329       C  0.58637397  0.98093266  0.42797044     0.03500
C1330       C  0.56042971  0.97150186  0.43015669    -0.04400
C1331       C  0.55237094  0.95057998  0.41393039    -0.01500
C1332       C  0.57025124  0.93868036  0.39642695     0.03500
C1333       C  0.63167844  0.97680229  0.41224843     0.38100
C1334       C  0.52527721  0.94177146  0.41453828     0.38100
C1335       C  0.56083940  0.91815513  0.37929131     0.36500
C1336       C  0.59484052  0.00316513  0.44348983     0.36500
N1337       N  0.55259025  0.90180139  0.36599767    -0.38300
N1338       N  0.60160167  0.02107812  0.45554648    -0.38300
N1339       N  0.50367957  0.93477211  0.41499578    -0.37700
N1340       N  0.65308163  0.98416416  0.41373872    -0.37700
C1341       C  0.42579189  0.94418894  0.46341439    -0.04400
C1342       C  0.41147377  0.95210029  0.44109707    -0.01500
C1343       C  0.39395842  0.93465645  0.42859351     0.03500
C1344       C  0.39100958  0.90874325  0.43785452    -0.04400
C1345       C  0.40518130  0.90122091  0.46071018    -0.01500
C1346       C  0.42203998  0.91897221  0.47351596     0.03500
C1347       C  0.41533378  0.97806301  0.43043190     0.38100
C1348       C  0.40346529  0.87508938  0.47125011     0.38100
C1349       C  0.43510162  0.91146297  0.49769477     0.36500
C1350       C  0.37871281  0.94402049  0.40654972     0.36500
N1351       N  0.44538049  0.90558825  0.51703356    -0.38300
N1352       N  0.36702390  0.95226064  0.38897020    -0.38300
N1353       N  0.40263136  0.85474154  0.48092996    -0.37700
N1354       N  0.41843375  0.99875084  0.42194365    -0.37700
C1355       C  0.60371322  0.10409728  0.56500502    -0.04400
C1356       C  0.57700357  0.11126739  0.56341923    -0.01500
C1357       C  0.55854570  0.09403386  0.55222478     0.03500
C1358       C  0.56702202  0.07059524  0.54049307    -0.04400
C1359       C  0.59404769  0.06464812  0.53972131    -0.01500
C1360       C  0.61238663  0.08146807  0.55179492     0.03500
C1361       C  0.56880548  0.13722705  0.57112131     0.38100
C1362       C  0.60288463  0.04083668  0.52719360     0.38100
C1363       C  0.64022329  0.07563759  0.55043383     0.36500
C1364       C  0.53082978  0.10058709  0.55241548     0.36500
N1365       N  0.66244079  0.07106117  0.54939290    -0.38300
N1366       N  0.50870551  0.10570888  0.55265077    -0.38300
N1367       N  0.60992123  0.02178857  0.51727769    -0.37700
N1368       N  0.56205044  0.15804300  0.57671531    -0.37700
C1369       C  0.56349056  0.89718142  0.59793259    -0.04400
C1370       C  0.54843398  0.91775309  0.60854024    -0.01500
C1371       C  0.53474671  0.93530013  0.59215071     0.03500
C1372       C  0.53718003  0.93376970  0.56455362    -0.04400
C1373       C  0.55371991  0.91415692  0.55391215    -0.01500
C1374       C  0.56697007  0.89625910  0.57051092     0.03500
C1375       C  0.54898070  0.92298636  0.63632845     0.38100
C1376       C  0.55817417  0.91286180  0.52588664     0.38100
C1377       C  0.58551175  0.87814707  0.55914145     0.36500
C1378       C  0.51801456  0.95490253  0.60413219     0.36500
N1379       N  0.60063423  0.86470178  0.54902710    -0.38300
N1380       N  0.50482070  0.97052796  0.61382650    -0.38300
N1381       N  0.56178587  0.91171906  0.50355559    -0.37700
N1382       N  0.54916048  0.92906267  0.65810538    -0.37700
C1383       C  0.39613802  0.06665531  0.60951365    -0.04400
C1384       C  0.38619226  0.05061500  0.58932440    -0.01500
C1385       C  0.40354187  0.03766757  0.57215590     0.03500
C1386       C  0.43113064  0.04056927  0.57510447    -0.04400
C1387       C  0.44083108  0.05488997  0.59691340    -0.01500
C1388       C  0.42327516  0.06678172  0.61460538     0.03500
C1389       C  0.35801141  0.04787289  0.58582380     0.38100
C1390       C  0.46880090  0.05869834  0.60074958     0.38100
C1391       C  0.43296490  0.07754496  0.63905645     0.36500
C1392       C  0.39272498  0.02135999  0.55153743     0.36500
N1393       N  0.44066106  0.08572570  0.65875342    -0.38300
N1394       N  0.38399174  0.00845270  0.53508046    -0.38300
N1395       N  0.49108288  0.06195193  0.60381194    -0.37700
N1396       N  0.33555215  0.04577080  0.58306934    -0.37700
C1397       C  0.66690429  0.10178535  0.63443437    -0.04400
C1398       C  0.65883351  0.07533842  0.63580817    -0.01500
C1399       C  0.66890411  0.05865835  0.65540755     0.03500
C1400       C  0.68675869  0.06812106  0.67437622    -0.04400
C1401       C  0.69510095  0.09430590  0.67306188    -0.01500
C1402       C  0.68505132  0.11111877  0.65347669     0.03500
C1403       C  0.63968750  0.06481003  0.61766124     0.38100
C1404       C  0.71306979  0.10436279  0.69270906     0.38100
C1405       C  0.69224568  0.13847850  0.65422106     0.36500
C1406       C  0.66100030  0.03140214  0.65587410     0.36500
N1407       N  0.69814016  0.16026396  0.65489357    -0.38300
N1408       N  0.65471392  0.00971218  0.65626180    -0.38300
N1409       N  0.72740826  0.11235803  0.70838455    -0.37700
N1410       N  0.62398631  0.05537705  0.60427924    -0.37700
C1411       C  0.61928467  0.90611756  0.66627187    -0.04400
C1412       C  0.64326673  0.91714255  0.65701211    -0.01500
C1413       C  0.65727641  0.93552627  0.67236250     0.03500
C1414       C  0.64694064  0.94476918  0.69621657    -0.04400
C1415       C  0.62173107  0.93687210  0.70381001    -0.01500
C1416       C  0.60830088  0.91729613  0.68962334     0.03500
C1417       C  0.65430417  0.91032259  0.63184159     0.38100
C1418       C  0.60972970  0.94842200  0.72688818     0.38100
C1419       C  0.58312796  0.90928500  0.70006824     0.36500
C1420       C  0.68235208  0.94551376  0.66322523     0.36500
N1421       N  0.56347755  0.90344682  0.70974793    -0.38300
N1422       N  0.70231540  0.95346701  0.65597461    -0.38300
N1423       N  0.60001270  0.95776947  0.74507826    -0.37700
N1424       N  0.66384883  0.90601519  0.61174619    -0.37700
C1425       C  0.42907663  0.18349138  0.68578711    -0.04400
C1426       C  0.40439861  0.17870916  0.69687387    -0.01500
C1427       C  0.38717981  0.16034171  0.68537363     0.03500
C1428       C  0.39525491  0.14461286  0.66358056    -0.04400
C1429       C  0.41969392  0.15116161  0.65156153    -0.01500
C1430       C  0.43579713  0.17104774  0.66217257     0.03500
C1431       C  0.39652723  0.19304970  0.72012415     0.38100
C1432       C  0.42905773  0.13842681  0.62807724     0.38100
C1433       C  0.45832131  0.18045747  0.64752142     0.36500
C1434       C  0.36069630  0.15938301  0.69564331     0.36500
N1435       N  0.47579017  0.18852850  0.63556376    -0.38300
N1436       N  0.33989747  0.15919362  0.70468153    -0.38300
N1437       N  0.43745163  0.12930939  0.60911287    -0.37700
N1438       N  0.39023575  0.20455730  0.73857164    -0.37700
C1439       C  0.60150892  0.16451353  0.63355617    -0.04400
C1440       C  0.60676473  0.18909118  0.64546259    -0.01500
C1441       C  0.58606641  0.20502616  0.65432957     0.03500
C1442       C  0.56020855  0.19541765  0.65461047    -0.04400
C1443       C  0.55576425  0.16898177  0.64820155    -0.01500
C1444       C  0.57611146  0.15362576  0.63732620     0.03500
C1445       C  0.63359186  0.19741966  0.65030898     0.38100
C1446       C  0.53037465  0.15722557  0.65333664     0.38100
C1447       C  0.57031084  0.12668466  0.63104530     0.36500
C1448       C  0.59159618  0.23096523  0.66437400     0.36500
N1449       N  0.56479429  0.10522147  0.62658855    -0.38300
N1450       N  0.59597960  0.25163238  0.67238945    -0.38300
N1451       N  0.51054443  0.14716955  0.65776672    -0.37700
N1452       N  0.65489960  0.20421607  0.65426761    -0.37700
C1453       C  0.56978172  0.83600667  0.31058455    -0.04400
C1454       C  0.58550320  0.83016021  0.33269433    -0.01500
C1455       C  0.60052157  0.84986776  0.34514094     0.03500
C1456       C  0.60018422  0.87580473  0.33560672    -0.04400
C1457       C  0.58334978  0.88182448  0.31432921    -0.01500
C1458       C  0.56870817  0.86205080  0.30162021     0.03500
C1459       C  0.58526480  0.80400952  0.34362394     0.38100
C1460       C  0.57910372  0.90879710  0.30697308     0.38100
C1461       C  0.55263265  0.86859197  0.27908485     0.36500
C1462       C  0.61553620  0.84304865  0.36822426     0.36500
N1463       N  0.53984698  0.87379900  0.26108250    -0.38300
N1464       N  0.62658969  0.83647743  0.38688421    -0.38300
N1465       N  0.57493684  0.93027820  0.30146078    -0.37700
N1466       N  0.58504117  0.78323494  0.35245548    -0.37700
C1467       C  0.44292709  0.81615136  0.34979852    -0.04400
C1468       C  0.44894587  0.83743694  0.36618985    -0.01500
C1469       C  0.42854515  0.85175060  0.37820118     0.03500
C1470       C  0.40201783  0.84483685  0.37361234    -0.04400
C1471       C  0.39623214  0.82436496  0.35574533    -0.01500
C1472       C  0.41660312  0.81005809  0.34410257     0.03500
C1473       C  0.47615903  0.84469395  0.37044315     0.38100
C1474       C  0.36924438  0.81848281  0.34852408     0.38100
C1475       C  0.41048840  0.78913834  0.32588256     0.36500
C1476       C  0.43520751  0.87311895  0.39553873     0.36500
N1477       N  0.40568914  0.77253040  0.31129070    -0.38300
N1478       N  0.44133921  0.89020987  0.40903237    -0.38300
N1479       N  0.34775181  0.81380751  0.34281434    -0.37700
N1480       N  0.49787083  0.85052447  0.37371715    -0.37700
C1481       C  0.07447454  0.57335074  0.03820097    -0.04400
C1482       C  0.09983920  0.56432194  0.04610259    -0.01500
C1483       C  0.11727181  0.58096507  0.05976910     0.03500
C1484       C  0.10964038  0.60646024  0.06647171    -0.04400
C1485       C  0.08583190  0.61639680  0.05665702    -0.01500
C1486       C  0.06800647  0.59995189  0.04335066     0.03500
C1487       C  0.10858270  0.53796120  0.04053323     0.38100
C1488       C  0.08018841  0.64407667  0.05900067     0.38100
C1489       C  0.04314668  0.61108330  0.03505320     0.36500
C1490       C  0.14357983  0.57212510  0.06632861     0.36500
N1491       N  0.02332178  0.62017742  0.02876222    -0.38300
N1492       N  0.16458318  0.56523516  0.07153910    -0.38300
N1493       N  0.07554362  0.66611240  0.06064036    -0.37700
N1494       N  0.11586132  0.51701385  0.03620534    -0.37700
C1495       C  0.94265798  0.54519814  0.07443275    -0.04400
C1496       C  0.91785942  0.53464634  0.08057425    -0.01500
C1497       C  0.90158358  0.54670835  0.09949317     0.03500
C1498       C  0.90937117  0.57035947  0.11220472    -0.04400
C1499       C  0.93483972  0.58023884  0.10650153    -0.01500
C1500       C  0.95141110  0.56745363  0.08833897     0.03500
C1501       C  0.90834404  0.51180527  0.06658091     0.38100
C1502       C  0.94476433  0.60370358  0.11886432     0.38100
C1503       C  0.97798445  0.57708139  0.08448049     0.36500
C1504       C  0.87655448  0.53439967  0.10480013     0.36500
N1505       N  0.99914314  0.58475769  0.08154717    -0.38300
N1506       N  0.85708259  0.52349521  0.10876066    -0.38300
N1507       N  0.95363797  0.62266454  0.12743203    -0.37700
N1508       N  0.90069288  0.49363050  0.05547850    -0.37700
C1509       C  0.03979060  0.43909596  0.06486032    -0.04400
C1510       C  0.03167016  0.41279208  0.06546094    -0.01500
C1511       C  0.04454514  0.39464267  0.08198111     0.03500
C1512       C  0.06479219  0.40276592  0.09936183    -0.04400
C1513       C  0.07302700  0.42924850  0.09834948    -0.01500
C1514       C  0.06040703  0.44718478  0.08151854     0.03500
C1515       C  0.01059824  0.40411065  0.04840232     0.38100
C1516       C  0.09507904  0.43872811  0.11351713     0.38100
C1517       C  0.06832458  0.47444888  0.08191138     0.36500
C1518       C  0.03854353  0.36714244  0.07910602     0.36500
N1519       N  0.07462287  0.49613387  0.08230443    -0.38300
N1520       N  0.03401560  0.34520570  0.07628096    -0.38300
N1521       N  0.11299294  0.44773904  0.12415175    -0.37700
N1522       N  0.99367047  0.39720490  0.03492896    -0.37700
C1523       C  0.93188108  0.61787441  0.90575704    -0.04400
C1524       C  0.95212084  0.62659609  0.92294158    -0.01500
C1525       C  0.96632664  0.60872722  0.93881796     0.03500
C1526       C  0.96042244  0.58176467  0.93824446    -0.04400
C1527       C  0.93908324  0.57327424  0.92263960    -0.01500
C1528       C  0.92470425  0.59103792  0.90699496     0.03500
C1529       C  0.95763837  0.65423477  0.92556904     0.38100
C1530       C  0.93106925  0.54604161  0.92323774     0.38100
C1531       C  0.90204023  0.58088934  0.89317217     0.36500
C1532       C  0.98745321  0.61823598  0.95535531     0.36500
N1533       N  0.88371208  0.57177414  0.88332911    -0.38300
N1534       N  0.00425819  0.62598187  0.96851605    -0.38300
N1535       N  0.92469914  0.52437836  0.92355720    -0.37700
N1536       N  0.96223657  0.67622756  0.92781837    -0.37700
C1537       C  0.09930791  0.44488984  0.89030877    -0.04400
C1538       C  0.07228926  0.43894196  0.89172725    -0.01500
C1539       C  0.05593986  0.45192838  0.90989530     0.03500
C1540       C  0.06636750  0.47117218  0.92694257    -0.04400
C1541       C  0.09353366  0.47691732  0.92570841    -0.01500
C1542       C  0.10991688  0.46361425  0.90779123     0.03500
C1543       C  0.06103079  0.41935843  0.87460214     0.38100
C1544       C  0.10467855  0.49701556  0.94239903     0.38100
C1545       C  0.13799545  0.46845350  0.90814750     0.36500
C1546       C  0.02843970  0.44466005  0.91158144     0.36500
N1547       N  0.16040521  0.47216641  0.90846485    -0.38300
N1548       N  0.00651708  0.43889077  0.91293033    -0.38300
N1549       N  0.11360962  0.51308545  0.95562692    -0.37700
N1550       N  0.05138407  0.40369696  0.86141083    -0.37700
C1551       C  0.89405124  0.41323882  0.93636999    -0.04400
C1552       C  0.91871123  0.40340611  0.94436685    -0.01500
C1553       C  0.93727573  0.42001563  0.95648830     0.03500
C1554       C  0.93052970  0.44597949  0.96271420    -0.04400
C1555       C  0.90473741  0.45479044  0.95776325    -0.01500
C1556       C  0.88651561  0.43844440  0.94471247     0.03500
C1557       C  0.92431165  0.37579468  0.94185018     0.38100
C1558       C  0.89689936  0.48055822  0.96644195     0.38100
C1559       C  0.85984784  0.44734086  0.94033010     0.36500
C1560       C  0.96335325  0.41039438  0.96257851     0.36500
N1561       N  0.83852661  0.45433937  0.93686838    -0.38300
N1562       N  0.98419667  0.40277138  0.96737156    -0.38300
N1563       N  0.89063394  0.50104250  0.97361553    -0.37700
N1564       N  0.92876132  0.35372316  0.94017024    -0.37700
C1565       C  0.10121696  0.37225015  0.83262220    -0.04400
C1566       C  0.10469592  0.34639121  0.84145948    -0.01500
C1567       C  0.08838522  0.32616936  0.83190471     0.03500
C1568       C  0.06848820  0.33151752  0.81327057    -0.04400
C1569       C  0.06531829  0.35726071  0.80406369    -0.01500
C1570       C  0.08152427  0.37751209  0.81367909     0.03500
C1571       C  0.12571960  0.34024886  0.85961623     0.38100
C1572       C  0.04454222  0.36323276  0.78558031     0.38100
C1573       C  0.07712522  0.40404433  0.80479437     0.36500
C1574       C  0.09255367  0.29960443  0.84078969     0.36500
N1575       N  0.07360411  0.42522318  0.79781523    -0.38300
N1576       N  0.09589557  0.27840980  0.84781476    -0.38300
N1577       N  0.02793019  0.36816442  0.77092584    -0.37700
N1578       N  0.14248629  0.33501347  0.87399643    -0.37700
C1579       C  0.93752257  0.31086671  0.85012623    -0.04400
C1580       C  0.91058185  0.30453010  0.84966153    -0.01500
C1581       C  0.89196053  0.32127851  0.86115667     0.03500
C1582       C  0.89993733  0.34449694  0.87436031    -0.04400
C1583       C  0.92694275  0.35161957  0.87307625    -0.01500
C1584       C  0.94561141  0.33452339  0.86167611     0.03500
C1585       C  0.90183800  0.28043450  0.83731829     0.38100
C1586       C  0.93601410  0.37684633  0.88203578     0.38100
C1587       C  0.97315110  0.34180955  0.86082014     0.36500
C1588       C  0.86438621  0.31466735  0.85809474     0.36500
N1589       N  0.99511357  0.34755317  0.86012011    -0.38300
N1590       N  0.84259500  0.30868422  0.85581497    -0.38300
N1591       N  0.94409171  0.39701579  0.88831364    -0.37700
N1592       N  0.89485682  0.26134758  0.82738180    -0.37700
C1593       C  0.82112339  0.44682373  0.81949955    -0.04400
C1594       C  0.81413934  0.42020735  0.81946842    -0.01500
C1595       C  0.82465926  0.40308820  0.83850346     0.03500
C1596       C  0.84190149  0.41238092  0.85833249    -0.04400
C1597       C  0.85036836  0.43863534  0.85704934    -0.01500
C1598       C  0.83962608  0.45581755  0.83817373     0.03500
C1599       C  0.79688797  0.41011311  0.79919098     0.38100
C1600       C  0.87065131  0.44825786  0.87442342     0.38100
C1601       C  0.84707325  0.48316072  0.83857245     0.36500
C1602       C  0.81893237  0.37548160  0.83643515     0.36500
N1603       N  0.85290586  0.50497296  0.83892112    -0.38300
N1604       N  0.81423645  0.35354145  0.83403194    -0.38300
N1605       N  0.88742127  0.45660465  0.88723731    -0.37700
N1606       N  0.78318780  0.40198118  0.78302459    -0.37700
C1607       C  0.84859500  0.57680880  0.79861831    -0.04400
C1608       C  0.87429937  0.57132307  0.80803828    -0.01500
C1609       C  0.88717762  0.58892370  0.82512009     0.03500
C1610       C  0.87437714  0.61169503  0.83398471    -0.04400
C1611       C  0.84968955  0.61816285  0.82349607    -0.01500
C1612       C  0.83664576  0.60088488  0.80635912     0.03500
C1613       C  0.88810902  0.54789016  0.80006417     0.38100
C1614       C  0.83854442  0.64376930  0.82869480     0.38100
C1615       C  0.81126721  0.60903995  0.79619889     0.36500
C1616       C  0.91426805  0.58414074  0.83256434     0.36500
N1617       N  0.79104200  0.61572269  0.78830110    -0.38300
N1618       N  0.93581262  0.58001050  0.83845893    -0.38300
N1619       N  0.82973941  0.66420248  0.83263862    -0.37700
N1620       N  0.89935742  0.52931830  0.79374423    -0.37700
C1621       C  0.17341572  0.32109212  0.06770730    -0.04400
C1622       C  0.15929118  0.34379669  0.06107610    -0.01500
C1623       C  0.13881236  0.35292245  0.07727733     0.03500
C1624       C  0.13435618  0.34146059  0.10219138    -0.04400
C1625       C  0.15051860  0.31999056  0.10970607    -0.01500
C1626       C  0.16910634  0.30938677  0.09219515     0.03500
C1627       C  0.16765765  0.35936557  0.03891101     0.38100
C1628       C  0.14921033  0.30875816  0.13564983     0.38100
C1629       C  0.18404566  0.28638082  0.09956251     0.36500
C1630       C  0.12203899  0.37346708  0.06728237     0.36500
N1631       N  0.19598645  0.26810343  0.10546775    -0.38300
N1632       N  0.10907804  0.38986183  0.05860072    -0.38300
N1633       N  0.14907196  0.29867040  0.15587333    -0.37700
N1634       N  0.17506393  0.37226096  0.02188958    -0.37700
C1635       C  0.19410349  0.36324729  0.94136876    -0.04400
C1636       C  0.16698924  0.36862011  0.94306804    -0.01500
C1637       C  0.15420549  0.38302174  0.92310721     0.03500
C1638       C  0.16684852  0.38749215  0.89866011    -0.04400
C1639       C  0.19357303  0.37916843  0.89639410    -0.01500
C1640       C  0.20752521  0.37000520  0.91839040     0.03500
C1641       C  0.15188871  0.35906541  0.96508795     0.38100
C1642       C  0.20707715  0.37788879  0.87148214     0.38100
C1643       C  0.23580187  0.36659363  0.91690738     0.36500
C1644       C  0.12868326  0.39394466  0.92900962     0.36500
N1645       N  0.25839380  0.36456007  0.91594025    -0.38300
N1646       N  0.10840872  0.40240825  0.93466685    -0.38300
N1647       N  0.21903571  0.37647934  0.85231367    -0.37700
N1648       N  0.13918539  0.35104355  0.98201311    -0.37700
C1649       C  0.89969090  0.14457065  0.83008285    -0.04400
C1650       C  0.92619119  0.14675240  0.83830143    -0.01500
C1651       C  0.94252910  0.16683695  0.82848254     0.03500
C1652       C  0.93319720  0.18445677  0.80918236    -0.04400
C1653       C  0.90696498  0.18215451  0.80062760    -0.01500
C1654       C  0.89035459  0.16256460  0.81097314     0.03500
C1655       C  0.93747418  0.12767158  0.85597811     0.38100
C1656       C  0.89698501  0.19974601  0.78067706     0.38100
C1657       C  0.86355544  0.16167517  0.80159864     0.36500
C1658       C  0.96877044  0.16988357  0.83927327     0.36500
N1659       N  0.84263757  0.16197801  0.79279515    -0.38300
N1660       N  0.98959598  0.17231692  0.84805511    -0.38300
N1661       N  0.88896581  0.21377308  0.76483293    -0.37700
N1662       N  0.94715120  0.11272351  0.86993470    -0.37700
C1663       C  0.93763531  0.04848825  0.92922618    -0.04400
C1664       C  0.93692053  0.04086982  0.90268280    -0.01500
C1665       C  0.92066622  0.05422147  0.88452397     0.03500
C1666       C  0.90430340  0.07518056  0.89265540    -0.04400
C1667       C  0.90610325  0.08348863  0.91915809    -0.01500
C1668       C  0.92234822  0.07009715  0.93720842     0.03500
C1669       C  0.95408358  0.02020263  0.89364616     0.38100
C1670       C  0.89200338  0.10611221  0.92858140     0.38100
C1671       C  0.92297008  0.07851910  0.96440590     0.36500
C1672       C  0.92248583  0.04756427  0.85699180     0.36500
N1673       N  0.92353452  0.08533221  0.98600765    -0.38300
N1674       N  0.92432576  0.04235443  0.83503182    -0.38300
N1675       N  0.88204416  0.12437968  0.93741028    -0.37700
N1676       N  0.96789487  0.00386288  0.88630428    -0.37700
C1677       C  0.82868452  0.07526822  0.82259954    -0.04400
C1678       C  0.82952662  0.04839599  0.81540427    -0.01500
C1679       C  0.80787237  0.03665694  0.80255601     0.03500
C1680       C  0.78629164  0.05183214  0.79456279    -0.04400
C1681       C  0.78692663  0.07892562  0.79791911    -0.01500
C1682       C  0.80752706  0.09061384  0.81210210     0.03500
C1683       C  0.85297358  0.03282758  0.81861883     0.38100
C1684       C  0.76566185  0.09480614  0.78751068     0.38100
C1685       C  0.80523048  0.11839409  0.81719486     0.36500
C1686       C  0.80819638  0.00896976  0.79646566     0.36500
N1687       N  0.80196726  0.14019586  0.82206898    -0.38300
N1688       N  0.80841419  0.98694355  0.79149471    -0.38300
N1689       N  0.74881805  0.10741989  0.77907412    -0.37700
N1690       N  0.87129441  0.01961765  0.82053835    -0.37700
C1691       C  0.03805289  0.93675254  0.93602210    -0.04400
C1692       C  0.06325085  0.92609760  0.94145857    -0.01500
C1693       C  0.07415324  0.90634493  0.92545032     0.03500
C1694       C  0.06151688  0.89833190  0.90191620    -0.04400
C1695       C  0.03685858  0.91004600  0.89580727    -0.01500
C1696       C  0.02483136  0.92803906  0.91319907     0.03500
C1697       C  0.07893688  0.93569316  0.96325681     0.38100
C1698       C  0.02400464  0.90512011  0.87091957     0.38100
C1699       C  0.99911529  0.93835873  0.90664134     0.36500
C1700       C  0.09869108  0.89474902  0.93400593     0.36500
N1701       N  0.97850592  0.94626472  0.90134047    -0.38300
N1702       N  0.11854548  0.88679590  0.94162925    -0.38300
N1703       N  0.01327804  0.90133560  0.85128372    -0.37700
N1704       N  0.09211062  0.94352146  0.98000223    -0.37700
C1705       C  0.89382886  0.91238293  0.06565862    -0.04400
C1706       C  0.88501360  0.92896642  0.04512045    -0.01500
C1707       C  0.90296470  0.94459319  0.03084207     0.03500
C1708       C  0.92992040  0.94439957  0.03719356    -0.04400
C1709       C  0.93874968  0.92825982  0.05780560    -0.01500
C1710       C  0.92091472  0.91294655  0.07232380     0.03500
C1711       C  0.85713160  0.93194425  0.04018767     0.38100
C1712       C  0.96662818  0.92715193  0.06402646     0.38100
C1713       C  0.93115121  0.89894129  0.09469315     0.36500
C1714       C  0.89348155  0.96182099  0.01040919     0.36500
N1715       N  0.94075841  0.88917560  0.11272726    -0.38300
N1716       N  0.88593607  0.97557113  0.99409734    -0.38300
N1717       N  0.98879913  0.92629494  0.06896633    -0.37700
N1718       N  0.83490563  0.93477930  0.03643562    -0.37700
C1719       C  0.93191769  0.11497022  0.09606734    -0.04400
C1720       C  0.95177511  0.12360673  0.07864342    -0.01500
C1721       C  0.96568091  0.10569818  0.06280294     0.03500
C1722       C  0.95972931  0.07879722  0.06364736    -0.04400
C1723       C  0.93894539  0.07024731  0.07988929    -0.01500
C1724       C  0.92477618  0.08817347  0.09545087     0.03500
C1725       C  0.95695723  0.15123458  0.07552317     0.38100
C1726       C  0.93127004  0.04290744  0.08005764     0.38100
C1727       C  0.90221612  0.07842608  0.10961575     0.36500
C1728       C  0.98651949  0.11511764  0.04594639     0.36500
N1729       N  0.88392853  0.06960821  0.11968871    -0.38300
N1730       N  0.00307959  0.12267732  0.03246676    -0.38300
N1731       N  0.92513544  0.02117050  0.08038084    -0.37700
N1732       N  0.96125394  0.17318455  0.07257316    -0.37700
C1733       C  0.09715458  0.94169861  0.10802560    -0.04400
C1734       C  0.09325046  0.93175833  0.08229222    -0.01500
C1735       C  0.07554883  0.94408829  0.06494286     0.03500
C1736       C  0.06322469  0.96770517  0.07187726    -0.04400
C1737       C  0.06569034  0.97682710  0.09784580    -0.01500
C1738       C  0.08159031  0.96326698  0.11605166     0.03500
C1739       C  0.10651338  0.90857178  0.07301508     0.38100
C1740       C  0.05172094  0.00009681  0.10600874     0.38100
C1741       C  0.07993514  0.97016670  0.14353912     0.36500
C1742       C  0.06794794  0.93098205  0.04087775     0.36500
N1743       N  0.07800189  0.97537191  0.16549300    -0.38300
N1744       N  0.06124746  0.91995908  0.02225745    -0.38300
N1745       N  0.04053887  0.01863399  0.11253185    -0.37700
N1746       N  0.11590411  0.88984617  0.06452615    -0.37700
C1747       C  0.09932984  0.17181449  0.87413501    -0.04400
C1748       C  0.09609716  0.16975934  0.84689683    -0.01500
C1749       C  0.07699496  0.18492784  0.83396190     0.03500
C1750       C  0.05994362  0.20168486  0.84841947    -0.04400
C1751       C  0.06207476  0.20211492  0.87604202    -0.01500
C1752       C  0.08166567  0.18734373  0.88873322     0.03500
C1753       C  0.11230337  0.15199886  0.83186490     0.38100
C1754       C  0.04374584  0.21707814  0.89176149     0.38100
C1755       C  0.08236801  0.18675468  0.91709430     0.36500
C1756       C  0.07585289  0.18349879  0.80555242     0.36500
N1757       N  0.08214457  0.18622402  0.93971339    -0.38300
N1758       N  0.07502458  0.18214196  0.78294505    -0.38300
N1759       N  0.02920128  0.22895794  0.90441756    -0.37700
N1760       N  0.12436778  0.13770778  0.81915107    -0.37700
C1761       C  0.10746318  0.10522318  0.93275848    -0.04400
C1762       C  0.11659077  0.08828562  0.95284652    -0.01500
C1763       C  0.09882419  0.07276370  0.96736551     0.03500
C1764       C  0.07167963  0.07297721  0.96147936    -0.04400
C1765       C  0.06267429  0.08884818  0.94066295    -0.01500
C1766       C  0.08027863  0.10478023  0.92648557     0.03500
C1767       C  0.14453643  0.08535154  0.95763939     0.38100
C1768       C  0.03519452  0.08812175  0.93285721     0.38100
C1769       C  0.06963123  0.12003554  0.90512435     0.36500
C1770       C  0.10862118  0.05688066  0.98875298     0.36500
N1771       N  0.05971685  0.13098615  0.88796373    -0.38300
N1772       N  0.11648301  0.04426370  0.00582405    -0.38300
N1773       N  0.01335849  0.08762091  0.92655347    -0.37700
N1774       N  0.16680913  0.08293918  0.96145403    -0.37700
C1775       C  0.17793000  0.17774359  0.93146912    -0.04400
C1776       C  0.16863048  0.18934007  0.95531658    -0.01500
C1777       C  0.18254165  0.20971537  0.96780467     0.03500
C1778       C  0.20444767  0.22128710  0.95576822    -0.04400
C1779       C  0.21364595  0.21080909  0.93197110    -0.01500
C1780       C  0.20046798  0.18970297  0.91973392     0.03500
C1781       C  0.14367765  0.18224178  0.96691750     0.38100
C1782       C  0.23618100  0.22261444  0.91910637     0.38100
C1783       C  0.20984370  0.18243251  0.89403529     0.36500
C1784       C  0.17423169  0.21863621  0.99353509     0.36500
N1785       N  0.21874929  0.17759768  0.87379992    -0.38300
N1786       N  0.16765746  0.22563547  0.01404321    -0.38300
N1787       N  0.25414731  0.23188660  0.90886610    -0.37700
N1788       N  0.12410989  0.17692527  0.97706670    -0.37700
C1789       C  0.32260529  0.07769914  0.67662042    -0.04400
C1790       C  0.32606907  0.05262728  0.68797746    -0.01500
C1791       C  0.30467404  0.03980531  0.69981300     0.03500
C1792       C  0.28075852  0.05300830  0.70338551    -0.04400
C1793       C  0.27882043  0.07944962  0.69677319    -0.01500
C1794       C  0.29969543  0.09195321  0.68391860     0.03500
C1795       C  0.35197272  0.04120420  0.69062157     0.38100
C1796       C  0.25500564  0.09380991  0.70274465     0.38100
C1797       C  0.29700453  0.11961140  0.67888137     0.36500
C1798       C  0.30741588  0.01309533  0.70859314     0.36500
N1799       N  0.29327966  0.14154710  0.67524905    -0.38300
N1800       N  0.30979327  0.99172790  0.71538802    -0.38300
N1801       N  0.23623868  0.10561140  0.70736318    -0.37700
N1802       N  0.37262067  0.03208386  0.69303252    -0.37700
C1803       C  0.18089857  0.07217881  0.81939229    -0.04400
C1804       C  0.18816306  0.09870993  0.81877746    -0.01500
C1805       C  0.17906502  0.11609154  0.83830715     0.03500
C1806       C  0.16389410  0.10686449  0.85964553    -0.04400
C1807       C  0.15692582  0.08014435  0.86028924    -0.01500
C1808       C  0.16517067  0.06302469  0.84019598     0.03500
C1809       C  0.20422116  0.10839297  0.79748385     0.38100
C1810       C  0.14135124  0.06980901  0.88155716     0.38100
C1811       C  0.15793602  0.03563631  0.84126322     0.36500
C1812       C  0.18283331  0.14386066  0.83462504     0.36500
N1813       N  0.15220392  0.01380860  0.84205860    -0.38300
N1814       N  0.18507444  0.16595956  0.83065969    -0.38300
N1815       N  0.12882148  0.06066999  0.89801766    -0.37700
N1816       N  0.21719886  0.11617500  0.78065080    -0.37700
C1817       C  0.11712151  0.91154415  0.83575597    -0.04400
C1818       C  0.14317200  0.91926304  0.84149548    -0.01500
C1819       C  0.15593815  0.93765551  0.82540406     0.03500
C1820       C  0.14302830  0.94807734  0.80318569    -0.04400
C1821       C  0.11611838  0.94288842  0.79941906    -0.01500
C1822       C  0.10303675  0.92540398  0.81616773     0.03500
C1823       C  0.15727514  0.90846739  0.86362065     0.38100
C1824       C  0.10209500  0.95428136  0.77746580     0.38100
C1825       C  0.07493503  0.92181546  0.81309131     0.36500
C1826       C  0.18241675  0.94605099  0.83189492     0.36500
N1827       N  0.05256001  0.91907610  0.81030593    -0.38300
N1828       N  0.20346447  0.95284236  0.83708924    -0.38300
N1829       N  0.09087998  0.96326648  0.75993591    -0.37700
N1830       N  0.16887189  0.90066154  0.88147458    -0.37700
C1831       C  0.79127393  0.30269562  0.95399703    -0.04400
C1832       C  0.78175928  0.31580616  0.93162141    -0.01500
C1833       C  0.79584652  0.33702465  0.92057836     0.03500
C1834       C  0.82025935  0.34578271  0.93171526    -0.04400
C1835       C  0.82904208  0.33255210  0.95479480    -0.01500
C1836       C  0.81396482  0.31260352  0.96646650     0.03500
C1837       C  0.75772193  0.30691701  0.91900647     0.38100
C1838       C  0.85480867  0.33753034  0.96600473     0.38100
C1839       C  0.82195043  0.30250743  0.99184694     0.36500
C1840       C  0.78494362  0.34782771  0.89675796     0.36500
N1841       N  0.82824847  0.29465133  0.01213471    -0.38300
N1842       N  0.77482265  0.35564953  0.87803311    -0.38300
N1843       N  0.87528964  0.34113008  0.97518384    -0.37700
N1844       N  0.73856711  0.30007596  0.90887819    -0.37700
C1845       C  0.82444464  0.19714689  0.05987593    -0.04400
C1846       C  0.81858213  0.17414709  0.07396768    -0.01500
C1847       C  0.83768157  0.16238243  0.09030615     0.03500
C1848       C  0.86298071  0.17369008  0.09304946    -0.04400
C1849       C  0.86949279  0.19514313  0.07661455    -0.01500
C1850       C  0.85033444  0.20686557  0.06041720     0.03500
C1851       C  0.79318633  0.16165441  0.07057519     0.38100
C1852       C  0.89621483  0.20491481  0.07547171     0.38100
C1853       C  0.85739099  0.22915542  0.04441251     0.36500
C1854       C  0.83092269  0.13831630  0.10348200     0.36500
N1855       N  0.86320918  0.24677924  0.03154356    -0.38300
N1856       N  0.82497887  0.11875908  0.11308971    -0.38300
N1857       N  0.91735911  0.21310438  0.07454243    -0.37700
N1858       N  0.77307861  0.15151530  0.06773337    -0.37700
C1859       C  0.80718479  0.16186118  0.93608338    -0.04400
C1860       C  0.82117947  0.17538533  0.91612924    -0.01500
C1861       C  0.83716782  0.16162962  0.89835133     0.03500
C1862       C  0.83821634  0.13427924  0.89923614    -0.04400
C1863       C  0.82461608  0.12070586  0.91911675    -0.01500
C1864       C  0.80965532  0.13440644  0.93776087     0.03500
C1865       C  0.81837666  0.20338097  0.91275196     0.38100
C1866       C  0.82651550  0.09247678  0.92068923     0.38100
C1867       C  0.79741647  0.12004691  0.95893986     0.36500
C1868       C  0.85187687  0.17568492  0.87858401     0.36500
N1869       N  0.78773580  0.10852584  0.97582560    -0.38300
N1870       N  0.86366410  0.18725622  0.86313823    -0.38300
N1871       N  0.82809965  0.06999548  0.92186564    -0.37700
N1872       N  0.81621559  0.22567223  0.90990767    -0.37700
C1873       C  0.06769688  0.83571139  0.19222712    -0.04400
C1874       C  0.09352292  0.83828072  0.20183964    -0.01500
C1875       C  0.11065167  0.85727808  0.19133282     0.03500
C1876       C  0.10205799  0.87449816  0.17117974    -0.04400
C1877       C  0.07560697  0.87262924  0.16264404    -0.01500
C1878       C  0.05884885  0.85302769  0.17255893     0.03500
C1879       C  0.10237318  0.82175158  0.22320071     0.38100
C1880       C  0.06464225  0.89157903  0.14466419     0.38100
C1881       C  0.03260504  0.85023825  0.16167623     0.36500
C1882       C  0.13702955  0.85860930  0.20186269     0.36500
N1883       N  0.01174085  0.84801101  0.15293215    -0.38300
N1884       N  0.15754726  0.85902265  0.21158470    -0.38300
N1885       N  0.05482840  0.90627278  0.13054156    -0.37700
N1886       N  0.10940775  0.80865427  0.24026567    -0.37700
C1887       C  0.90256229  0.64543965  0.16940779    -0.04400
C1888       C  0.92730447  0.63888070  0.18006943    -0.01500
C1889       C  0.94395849  0.65859784  0.19006359     0.03500
C1890       C  0.93541153  0.68477929  0.19054308    -0.04400
C1891       C  0.90947645  0.69076476  0.18287883    -0.01500
C1892       C  0.89281253  0.67096179  0.17316090     0.03500
C1893       C  0.93499714  0.61171220  0.18200926     0.38100
C1894       C  0.89999918  0.71735181  0.18498641     0.38100
C1895       C  0.86540242  0.67662639  0.16791398     0.36500
C1896       C  0.97000554  0.65203640  0.19946851     0.36500
N1897       N  0.84349822  0.68106995  0.16384083    -0.38300
N1898       N  0.99079394  0.64680447  0.20698557    -0.38300
N1899       N  0.89252227  0.73859336  0.18670710    -0.37700
N1900       N  0.94100295  0.59000843  0.18365802    -0.37700
C1901       C  0.94015628  0.81690117  0.15208529    -0.04400
C1902       C  0.92160359  0.83207009  0.16643000    -0.01500
C1903       C  0.90296584  0.84772214  0.15327335     0.03500
C1904       C  0.90174370  0.84763089  0.12579999    -0.04400
C1905       C  0.92037072  0.83301749  0.11139930    -0.01500
C1906       C  0.93970816  0.81812916  0.12440727     0.03500
C1907       C  0.92056029  0.83088084  0.19481741     0.38100
C1908       C  0.92007432  0.83394770  0.08298628     0.38100
C1909       C  0.95949569  0.80471335  0.10908782     0.36500
C1910       C  0.88439496  0.86324719  0.16812259     0.36500
N1911       N  0.97528464  0.79410428  0.09678875    -0.38300
N1912       N  0.86980477  0.87567460  0.18017221    -0.38300
N1913       N  0.91978269  0.83482413  0.06035542    -0.37700
N1914       N  0.91961608  0.83001184  0.21743612    -0.37700
C1915       C  0.06383206  0.70916390  0.14920757    -0.04400
C1916       C  0.09045237  0.71669369  0.14874641    -0.01500
C1917       C  0.10962158  0.69986857  0.13844893     0.03500
C1918       C  0.10234411  0.67598742  0.12619159    -0.04400
C1919       C  0.07562117  0.66798940  0.12775321    -0.01500
C1920       C  0.05653298  0.68461660  0.13910789     0.03500
C1921       C  0.09827166  0.74204641  0.15896146     0.38100
C1922       C  0.06730831  0.64245954  0.11890306     0.38100
C1923       C  0.02950617  0.67594766  0.14152890     0.36500
C1924       C  0.13705021  0.70687369  0.14199832     0.36500
N1925       N  0.00798765  0.66900419  0.14356037    -0.38300
N1926       N  0.15878427  0.71285292  0.14479088    -0.38300
N1927       N  0.05990579  0.62205462  0.11256778    -0.37700
N1928       N  0.10448243  0.76221328  0.16708244    -0.37700
C1929       C  0.66917011  0.13236927  0.09828940    -0.04400
C1930       C  0.67470612  0.12147342  0.07350540    -0.01500
C1931       C  0.68906776  0.13581753  0.05470339     0.03500
C1932       C  0.70065843  0.16009421  0.06148353    -0.04400
C1933       C  0.69753437  0.16935564  0.08761733    -0.01500
C1934       C  0.68153122  0.15584611  0.10557569     0.03500
C1935       C  0.66707605  0.09479108  0.06784243     0.38100
C1936       C  0.71192020  0.19196151  0.09697655     0.38100
C1937       C  0.67894851  0.16538842  0.13225352     0.36500
C1938       C  0.69147435  0.12543550  0.02840074     0.36500
N1939       N  0.67688377  0.17288172  0.15352488    -0.38300
N1940       N  0.69324003  0.11712303  0.00740657    -0.38300
N1941       N  0.72346761  0.20980476  0.10474110    -0.37700
N1942       N  0.66120654  0.07347048  0.06321709    -0.37700
C1943       C  0.56349134  0.04681587  0.06870430    -0.04400
C1944       C  0.57764412  0.06907193  0.06041966    -0.01500
C1945       C  0.59425509  0.08276543  0.07783022     0.03500
C1946       C  0.59757897  0.07423457  0.10413137    -0.04400
C1947       C  0.58187917  0.05286871  0.11275994    -0.01500
C1948       C  0.56561740  0.03890456  0.09503771     0.03500
C1949       C  0.57507830  0.07837276  0.03365561     0.38100
C1950       C  0.58060225  0.04629986  0.14034435     0.38100
C1951       C  0.54998617  0.01715650  0.10432458     0.36500
C1952       C  0.60677187  0.10612751  0.06793545     0.36500
N1953       N  0.53751601  0.99981885  0.11174862    -0.38300
N1954       N  0.61553932  0.12497277  0.05906081    -0.38300
N1955       N  0.57941593  0.04096882  0.16231438    -0.37700
N1956       N  0.57284576  0.08638550  0.01261711    -0.37700
C1957       C  0.62138814  0.10201601  0.83750848    -0.04400
C1958       C  0.64826144  0.09720587  0.84214982    -0.01500
C1959       C  0.66222045  0.07945733  0.82627908     0.03500
C1960       C  0.64885260  0.06350291  0.80768519    -0.04400
C1961       C  0.62121022  0.06612411  0.80544874    -0.01500
C1962       C  0.60775523  0.08551214  0.81986507     0.03500
C1963       C  0.66177954  0.10935548  0.86394381     0.38100
C1964       C  0.60620127  0.04874978  0.78866977     0.38100
C1965       C  0.57945914  0.08747829  0.81742032     0.36500
C1966       C  0.69066304  0.07892045  0.82863360     0.36500
N1967       N  0.55687781  0.08850484  0.81528775    -0.38300
N1968       N  0.71331104  0.07876080  0.83054151    -0.38300
N1969       N  0.59410534  0.03493832  0.77536725    -0.37700
N1970       N  0.67309336  0.11757192  0.88180258    -0.37700
C1971       C  0.63791904  0.17184471  0.89751914    -0.04400
C1972       C  0.63108251  0.18010288  0.92300496    -0.01500
C1973       C  0.65026898  0.19114730  0.93968873     0.03500
C1974       C  0.67629974  0.19435673  0.93086277    -0.04400
C1975       C  0.68282290  0.18734985  0.90498092    -0.01500
C1976       C  0.66346216  0.17703353  0.88807440     0.03500
C1977       C  0.60400845  0.17845643  0.93158667     0.38100
C1978       C  0.70960618  0.19043038  0.89589375     0.38100
C1979       C  0.66970327  0.17238553  0.86077333     0.36500
C1980       C  0.64324347  0.19931946  0.96593494     0.36500
N1981       N  0.67477848  0.16866093  0.83902066    -0.38300
N1982       N  0.63762256  0.20594565  0.98684351    -0.38300
N1983       N  0.73102816  0.19276464  0.88877319    -0.37700
N1984       N  0.58237076  0.17728059  0.93833973    -0.37700
C1985       C  0.56271960  0.11778188  0.90439480    -0.04400
C1986       C  0.53505292  0.11220843  0.90281921    -0.01500
C1987       C  0.52369545  0.09192265  0.91782288     0.03500
C1988       C  0.53911520  0.07696493  0.93483162    -0.04400
C1989       C  0.56583196  0.08301282  0.93785644    -0.01500
C1990       C  0.57709812  0.10422624  0.92423237     0.03500
C1991       C  0.51675982  0.12801068  0.88808415     0.38100
C1992       C  0.58201139  0.06700582  0.95489089     0.38100
C1993       C  0.60242808  0.11334370  0.93340971     0.36500
C1994       C  0.49567936  0.08656766  0.91617436     0.36500
N1995       N  0.62266402  0.11996800  0.94135570    -0.38300
N1996       N  0.47339722  0.08231275  0.91495372    -0.38300
N1997       N  0.59507170  0.05408807  0.96815054    -0.37700
N1998       N  0.50075783  0.14033199  0.87776477    -0.37700
C1999       C  0.56851969  0.18359951  0.82699758    -0.04400
C2000       C  0.54275813  0.17741489  0.81808885    -0.01500
C2001       C  0.52965327  0.19357624  0.80012253     0.03500
C2002       C  0.54341799  0.21327436  0.78668974    -0.04400
C2003       C  0.56988548  0.21814477  0.79330573    -0.01500
C2004       C  0.58252775  0.20316945  0.81283079     0.03500
C2005       C  0.53097563  0.15224027  0.82330398     0.38100
C2006       C  0.58487515  0.23749250  0.77892583     0.38100
C2007       C  0.61074657  0.20614839  0.81548898     0.36500
C2008       C  0.50183366  0.18939980  0.79519823     0.36500
N2009       N  0.63324296  0.20887325  0.81716500    -0.38300
N2010       N  0.47967664  0.18610936  0.79136393    -0.38300
N2011       N  0.59700030  0.25285369  0.76760975    -0.37700
N2012       N  0.52124386  0.13206710  0.82615272    -0.37700
C2013       C  0.39089113  0.10742107  0.06170593    -0.04400
C2014       C  0.40346478  0.11500439  0.03801740    -0.01500
C2015       C  0.42142234  0.09804853  0.02545782     0.03500
C2016       C  0.42790963  0.07381441  0.03677696    -0.04400
C2017       C  0.41606238  0.06655572  0.06060493    -0.01500
C2018       C  0.39671889  0.08249681  0.07219502     0.03500
C2019       C  0.39951474  0.14084843  0.02715987     0.38100
C2020       C  0.42550440  0.04378000  0.07459158     0.38100
C2021       C  0.38238605  0.07238765  0.09445947     0.36500
C2022       C  0.43355651  0.10573058  0.00097057     0.36500
N2023       N  0.37131179  0.06345144  0.11204068    -0.38300
N2024       N  0.44329375  0.11182520  0.98146826    -0.38300
N2025       N  0.43352790  0.02616207  0.08626005    -0.37700
N2026       N  0.39657029  0.16146902  0.01844244    -0.37700
C2027       C  0.31964892  0.17975362  0.07212239    -0.04400
C2028       C  0.31170822  0.20176452  0.08714964    -0.01500
C2029       C  0.29890084  0.22303322  0.07525552     0.03500
C2030       C  0.29134945  0.22166031  0.04871204    -0.04400
C2031       C  0.29432297  0.19770815  0.03525949    -0.01500
C2032       C  0.30762407  0.17656772  0.04720461     0.03500
C2033       C  0.31532659  0.20236531  0.11526783     0.38100
C2034       C  0.28246537  0.19430132  0.00960366     0.38100
C2035       C  0.30510193  0.15093180  0.03552940     0.36500
C2036       C  0.29432577  0.24659546  0.09041385     0.36500
N2037       N  0.30261411  0.13049959  0.02618599    -0.38300
N2038       N  0.29069347  0.26529055  0.10259575    -0.38300
N2039       N  0.27289143  0.19157985  0.98921509    -0.37700
N2040       N  0.31706434  0.20347490  0.13779803    -0.37700
C2041       C  0.42975756  0.90164414  0.09524601    -0.04400
C2042       C  0.45366539  0.89515711  0.08240850    -0.01500
C2043       C  0.46810239  0.91415382  0.06842893     0.03500
C2044       C  0.45671603  0.93848430  0.06225246    -0.04400
C2045       C  0.43103089  0.94370498  0.07169024    -0.01500
C2046       C  0.41828694  0.92625015  0.08898452     0.03500
C2047       C  0.46210966  0.86819479  0.08063270     0.38100
C2048       C  0.41710660  0.96714058  0.06366581     0.38100
C2049       C  0.39335000  0.93462931  0.09971495     0.36500
C2050       C  0.49458054  0.90810205  0.06013381     0.36500
N2051       N  0.37344974  0.94227234  0.10750512    -0.38300
N2052       N  0.51595058  0.90321311  0.05432538    -0.38300
N2053       N  0.40537186  0.98524700  0.05689069    -0.37700
N2054       N  0.46863424  0.84668960  0.07845349    -0.37700
C2055       C  0.43154542  0.82809873  0.16726999    -0.04400
C2056       C  0.45927471  0.82569116  0.16950541    -0.01500
C2057       C  0.47063840  0.81528051  0.19252758     0.03500
C2058       C  0.45476592  0.80394948  0.21201233    -0.04400
C2059       C  0.42754700  0.80199252  0.20773798    -0.01500
C2060       C  0.41599672  0.81381179  0.18562176     0.03500
C2061       C  0.47648151  0.83047181  0.14757760     0.38100
C2062       C  0.41109300  0.78882419  0.22680063     0.38100
C2063       C  0.38785396  0.81099775  0.18205998     0.36500
C2064       C  0.49892359  0.81580154  0.19589365     0.36500
N2065       N  0.36550781  0.80805400  0.17922903    -0.38300
N2066       N  0.52145487  0.81657626  0.19863806    -0.38300
N2067       N  0.39795890  0.77831141  0.24193418    -0.37700
N2068       N  0.49107110  0.83352223  0.13052525    -0.37700
C2069       C  0.66610449  0.90756991  0.86632480    -0.04400
C2070       C  0.68905872  0.92269833  0.87091762    -0.01500
C2071       C  0.70081997  0.93716811  0.85047186     0.03500
C2072       C  0.69001858  0.93680905  0.82496937    -0.04400
C2073       C  0.66669694  0.92247439  0.82050299    -0.01500
C2074       C  0.65442623  0.90860549  0.84112684     0.03500
C2075       C  0.69996839  0.92460829  0.89713341     0.38100
C2076       C  0.65464192  0.92272114  0.79473850     0.38100
C2077       C  0.62931752  0.89631045  0.83613332     0.36500
C2078       C  0.72435893  0.95227200  0.85570892     0.36500
N2079       N  0.60896871  0.88736873  0.83149433    -0.38300
N2080       N  0.74309384  0.96435958  0.85990767    -0.38300
N2081       N  0.64510247  0.92278325  0.77416694    -0.37700
N2082       N  0.70863763  0.92612553  0.91803941    -0.37700
C2083       C  0.60856164  0.91010403  0.94012698    -0.04400
C2084       C  0.59114891  0.90049098  0.95947951    -0.01500
C2085       C  0.57222566  0.91711130  0.97101461     0.03500
C2086       C  0.57091681  0.94374171  0.96407284    -0.04400
C2087       C  0.58886064  0.95348798  0.94530257    -0.01500
C2088       C  0.60751210  0.93679850  0.93345334     0.03500
C2089       C  0.59126928  0.87298693  0.96623921     0.38100
C2090       C  0.58833775  0.98086890  0.93817350     0.38100
C2091       C  0.62614907  0.94743120  0.91489386     0.36500
C2092       C  0.55263661  0.90614851  0.98830529     0.36500
N2093       N  0.64094611  0.95624583  0.90020921    -0.38300
N2094       N  0.53681348  0.89703802  0.00166062    -0.38300
N2095       N  0.58790512  0.00265693  0.93231667    -0.37700
N2096       N  0.59125019  0.85103847  0.97149794    -0.37700
C2097       C  0.43277125  0.97231137  0.92662420    -0.04400
C2098       C  0.43950302  0.97054592  0.89962913    -0.01500
C2099       C  0.42261075  0.95777547  0.88166637     0.03500
C2100       C  0.39898814  0.94632519  0.89026942    -0.04400
C2101       C  0.39068669  0.95077364  0.91610803    -0.01500
C2102       C  0.40770856  0.96256862  0.93447654     0.03500
C2103       C  0.46349069  0.98218849  0.88981476     0.38100
C2104       C  0.36370941  0.94521005  0.92333730     0.38100
C2105       C  0.39895227  0.96403059  0.96147339     0.36500
C2106       C  0.42934019  0.95671202  0.85408220     0.36500
N2107       N  0.39175854  0.96505431  0.98292670    -0.38300
N2108       N  0.43455663  0.95588670  0.83206400    -0.38300
N2109       N  0.34214017  0.94131091  0.92923430    -0.37700
N2110       N  0.48258463  0.99142934  0.88181433    -0.37700
C2111       C  0.32807975  0.94482347  0.82146300    -0.04400
C2112       C  0.30967791  0.96149604  0.83428543    -0.01500
C2113       C  0.28726098  0.97078513  0.82100487     0.03500
C2114       C  0.28282514  0.96407694  0.79455724    -0.04400
C2115       C  0.30217552  0.94971494  0.78105565    -0.01500
C2116       C  0.32559738  0.94211629  0.79388401     0.03500
C2117       C  0.31338669  0.96910044  0.86146147     0.38100
C2118       C  0.29831733  0.94298207  0.75373080     0.38100
C2119       C  0.34808515  0.93588775  0.77780989     0.36500
C2120       C  0.26802829  0.98625861  0.83515569     0.36500
N2121       N  0.36597363  0.93154370  0.76456758    -0.38300
N2122       N  0.25274299  0.99861359  0.84641050    -0.38300
N2123       N  0.29515269  0.93713959  0.73206556    -0.37700
N2124       N  0.31614000  0.97532992  0.88307215    -0.37700
C2125       C  0.20606145  0.71919605  0.04213146    -0.04400
C2126       C  0.21662342  0.70793475  0.06501972    -0.01500
C2127       C  0.20425162  0.68638088  0.07711337     0.03500
C2128       C  0.18015751  0.67594390  0.06701164    -0.04400
C2129       C  0.16972435  0.68796541  0.04386877    -0.01500
C2130       C  0.18321734  0.70825221  0.03102441     0.03500
C2131       C  0.23962789  0.71954037  0.07737898     0.38100
C2132       C  0.14394313  0.68127972  0.03363009     0.38100
C2133       C  0.17311176  0.71800693  0.00621947     0.36500
C2134       C  0.21662379  0.67684369  0.10074672     0.36500
N2135       N  0.16494599  0.72571446  0.98653199    -0.38300
N2136       N  0.22802452  0.67016066  0.11917710    -0.38300
N2137       N  0.12353872  0.67639252  0.02490585    -0.37700
N2138       N  0.25786589  0.72875716  0.08728732    -0.37700
C2139       C  0.36061738  0.84154568  0.09806742    -0.04400
C2140       C  0.33460845  0.85131597  0.09967361    -0.01500
C2141       C  0.31453677  0.84095122  0.08363261     0.03500
C2142       C  0.32023120  0.82158782  0.06479508    -0.04400
C2143       C  0.34615919  0.81218939  0.06259913    -0.01500
C2144       C  0.36624190  0.82214890  0.07901170     0.03500
C2145       C  0.32802750  0.87272969  0.11694594     0.38100
C2146       C  0.35246850  0.79317185  0.04252811     0.38100
C2147       C  0.39307746  0.81364656  0.07489857     0.36500
C2148       C  0.28769335  0.85008741  0.08680369     0.36500
N2149       N  0.41448351  0.80691248  0.07150831    -0.38300
N2150       N  0.26632219  0.85730893  0.08935890    -0.38300
N2151       N  0.35741491  0.77803510  0.02646089    -0.37700
N2152       N  0.32178562  0.89040976  0.12955957    -0.37700
C2153       C  0.13419746  0.84097343  0.89703720    -0.04400
C2154       C  0.15952528  0.83511896  0.88773681    -0.01500
C2155       C  0.17717336  0.82057090  0.90326407     0.03500
C2156       C  0.17086718  0.81424964  0.92964523    -0.04400
C2157       C  0.14458199  0.81846628  0.93808824    -0.01500
C2158       C  0.12621310  0.83071198  0.92136421     0.03500
C2159       C  0.16726887  0.84328213  0.86168483     0.38100
C2160       C  0.13562476  0.80919331  0.96336016     0.38100
C2161       C  0.09868127  0.83170299  0.92869234     0.36500
C2162       C  0.20073717  0.81044668  0.89098850     0.36500
N2163       N  0.07671922  0.83239064  0.93440297    -0.38300
N2164       N  0.21921696  0.80200393  0.88091676    -0.38300
N2165       N  0.12826279  0.80180276  0.98344398    -0.37700
N2166       N  0.17392908  0.84998636  0.84112828    -0.37700
C2167       C  0.29916552  0.85869033  0.93494400    -0.04400
C2168       C  0.29032489  0.86199808  0.90912110    -0.01500
C2169       C  0.30743979  0.87111192  0.88969215     0.03500
C2170       C  0.33232742  0.88188923  0.89649811    -0.04400
C2171       C  0.34159699  0.87771884  0.92251122    -0.01500
C2172       C  0.32514051  0.86572497  0.94142365     0.03500
C2173       C  0.26298557  0.85725035  0.90269568     0.38100
C2174       C  0.36803797  0.88465190  0.93022655     0.38100
C2175       C  0.33509281  0.85996142  0.96742527     0.36500
C2176       C  0.29962000  0.86771524  0.86252089     0.36500
N2177       N  0.34299342  0.85516225  0.98812418    -0.38300
N2178       N  0.29308613  0.86502459  0.84097623    -0.38300
N2179       N  0.38911924  0.88966510  0.93709744    -0.37700
N2180       N  0.24103346  0.85436505  0.89768409    -0.37700
C2181       C  0.19127006  0.85767038  0.05959906    -0.04400
C2182       C  0.17869220  0.84345517  0.08002593    -0.01500
C2183       C  0.16455763  0.85659880  0.09983148     0.03500
C2184       C  0.16322744  0.88396538  0.09992093    -0.04400
C2185       C  0.17520127  0.89820604  0.07945273    -0.01500
C2186       C  0.18902181  0.88518756  0.05938230     0.03500
C2187       C  0.18121738  0.81530105  0.08172397     0.38100
C2188       C  0.17277951  0.92641806  0.07877712     0.38100
C2189       C  0.20045576  0.90030298  0.03830969     0.36500
C2190       C  0.15219276  0.84199155  0.12077769     0.36500
N2191       N  0.20957412  0.91245576  0.02156091    -0.38300
N2192       N  0.14230403  0.83034003  0.13744930    -0.38300
N2193       N  0.17073147  0.94888955  0.07831691    -0.37700
N2194       N  0.18315396  0.79285873  0.08321136    -0.37700
C2195       C  0.21513873  0.96536610  0.20715091    -0.04400
C2196       C  0.21476546  0.93845434  0.20255196    -0.01500
C2197       C  0.19436661  0.92711224  0.18789278     0.03500
C2198       C  0.17353875  0.94271188  0.17729981    -0.04400
C2199       C  0.17250827  0.96941013  0.18513004    -0.01500
C2200       C  0.19374974  0.98076484  0.19906094     0.03500
C2201       C  0.23595845  0.92222672  0.21229167     0.38100
C2202       C  0.14913271  0.98501265  0.18162254     0.38100
C2203       C  0.19329416  0.00825468  0.20592033     0.36500
C2204       C  0.19605733  0.89920891  0.18302142     0.36500
N2205       N  0.19295486  0.03013817  0.21148414    -0.38300
N2206       N  0.19844792  0.87720914  0.17853742    -0.38300
N2207       N  0.13079512  0.99818134  0.17958651    -0.37700
N2208       N  0.25244160  0.90873891  0.21993131    -0.37700
C2209       C  0.31740942  0.07473090  0.17653663    -0.04400
C2210       C  0.34015184  0.08982642  0.18161520    -0.01500
C2211       C  0.35122842  0.10573678  0.16184596     0.03500
C2212       C  0.33895589  0.10783430  0.13706790    -0.04400
C2213       C  0.31712059  0.09145728  0.13155733    -0.01500
C2214       C  0.30641288  0.07515874  0.15113152     0.03500
C2215       C  0.35276920  0.08842350  0.20707248     0.38100
C2216       C  0.30641730  0.09024202  0.10521428     0.38100
C2217       C  0.28361687  0.05922546  0.14516584     0.36500
C2218       C  0.37577057  0.11902916  0.16706541     0.36500
N2219       N  0.26546357  0.04649525  0.14037500    -0.38300
N2220       N  0.39576604  0.12874160  0.17166380    -0.38300
N2221       N  0.29798783  0.08922877  0.08418239    -0.37700
N2222       N  0.36279628  0.08739799  0.22738926    -0.37700
C2223       C  0.31577830  0.93964627  0.32356597    -0.04400
C2224       C  0.33583621  0.92130019  0.31826003    -0.01500
C2225       C  0.34535893  0.90460641  0.33810899     0.03500
C2226       C  0.33484173  0.90567202  0.36369177    -0.04400
C2227       C  0.31475314  0.92406296  0.36903830    -0.01500
C2228       C  0.30512615  0.94075094  0.34907410     0.03500
C2229       C  0.34688593  0.91941337  0.29211809     0.38100
C2230       C  0.30555090  0.92745826  0.39566587     0.38100
C2231       C  0.28530423  0.96008121  0.35525486     0.36500
C2232       C  0.36625239  0.88664556  0.33158545     0.36500
N2233       N  0.26950758  0.97552359  0.36021118    -0.38300
N2234       N  0.38315454  0.87322551  0.32478742    -0.38300
N2235       N  0.29852870  0.93055064  0.41696590    -0.37700
N2236       N  0.35600407  0.91788997  0.27144973    -0.37700
C2237       C  0.37389711  0.90564665  0.16584662    -0.04400
C2238       C  0.35206904  0.90053388  0.18206232    -0.01500
C2239       C  0.34169523  0.92039456  0.19800309     0.03500
C2240       C  0.35210595  0.94583329  0.19693269    -0.04400
C2241       C  0.37469409  0.95071979  0.18190955    -0.01500
C2242       C  0.38644628  0.93024590  0.16764259     0.03500
C2243       C  0.34071350  0.87461572  0.18315799     0.38100
C2244       C  0.38585222  0.97672331  0.18119631     0.38100
C2245       C  0.41263229  0.93386362  0.15721912     0.36500
C2246       C  0.32171964  0.91420962  0.21717467     0.36500
N2247       N  0.43375045  0.93694031  0.14950797    -0.38300
N2248       N  0.30655647  0.90917633  0.23319927    -0.38300
N2249       N  0.39465735  0.99751679  0.18050013    -0.37700
N2250       N  0.33113626  0.85418366  0.18409542    -0.37700
C2251       C  0.38390040  0.10325163  0.33758041    -0.04400
C2252       C  0.35945289  0.09291461  0.34605726    -0.01500
C2253       C  0.34580786  0.07470304  0.33030946     0.03500
C2254       C  0.35700069  0.06530653  0.30688021    -0.04400
C2255       C  0.38301680  0.07202275  0.30074003    -0.01500
C2256       C  0.39645206  0.09076066  0.31592183     0.03500
C2257       C  0.34797129  0.10001463  0.37095138     0.38100
C2258       C  0.39571078  0.06055801  0.27802865     0.38100
C2259       C  0.42328245  0.09688395  0.30864547     0.36500
C2260       C  0.32015261  0.06531999  0.33841406     0.36500
N2261       N  0.44432568  0.10180869  0.30174865    -0.38300
N2262       N  0.29970957  0.05784651  0.34480366    -0.38300
N2263       N  0.40593362  0.05137706  0.26003125    -0.37700
N2264       N  0.33828198  0.10459954  0.39091315    -0.37700
C2265       C  0.54014860  0.80134269  0.71449018    -0.04400
C2266       C  0.55513533  0.78739875  0.69593527    -0.01500
C2267       C  0.56343925  0.79959652  0.67249306     0.03500
C2268       C  0.56001195  0.82693960  0.66895242    -0.04400
C2269       C  0.54169745  0.83948407  0.68575515    -0.01500
C2270       C  0.53258038  0.82717394  0.70863621     0.03500
C2271       C  0.56123827  0.76010500  0.70037461     0.38100
C2272       C  0.53033430  0.86441302  0.67883984     0.38100
C2273       C  0.51587077  0.84166652  0.72653135     0.36500
C2274       C  0.57087276  0.78290934  0.65087725     0.36500
N2275       N  0.50247482  0.85319737  0.74068464    -0.38300
N2276       N  0.57630718  0.76915128  0.63374152    -0.38300
N2277       N  0.51982855  0.88371499  0.67363553    -0.37700
N2278       N  0.56634897  0.73840616  0.70393926    -0.37700
C2279       C  0.43337720  0.83171427  0.81635438    -0.04400
C2280       C  0.40675057  0.83167360  0.80858005    -0.01500
C2281       C  0.38929289  0.85123351  0.81774190     0.03500
C2282       C  0.39819971  0.87132005  0.83483694    -0.04400
C2283       C  0.42489599  0.87093986  0.84279036    -0.01500
C2284       C  0.44239773  0.85195142  0.83286627     0.03500
C2285       C  0.39705762  0.81110306  0.79161875     0.38100
C2286       C  0.43490538  0.88945898  0.86173542     0.38100
C2287       C  0.47024528  0.85414230  0.83859984     0.36500
C2288       C  0.36177617  0.84962472  0.81058038     0.36500
N2289       N  0.49247324  0.85629446  0.84276184    -0.38300
N2290       N  0.33987527  0.84821977  0.80468506    -0.38300
N2291       N  0.44390987  0.90303037  0.87746509    -0.37700
N2292       N  0.38930098  0.79476005  0.77800724    -0.37700
C2293       C  0.56346479  0.80985643  0.85425452    -0.04400
C2294       C  0.59009661  0.81075375  0.84611599    -0.01500
C2295       C  0.60743679  0.82923828  0.85679774     0.03500
C2296       C  0.59950742  0.84547613  0.87756838    -0.04400
C2297       C  0.57299296  0.84513732  0.88549451    -0.01500
C2298       C  0.55514098  0.82704504  0.87433570     0.03500
C2299       C  0.60045158  0.79173820  0.82770720     0.38100
C2300       C  0.56346501  0.86428776  0.90396268     0.38100
C2301       C  0.52844325  0.82596556  0.88406947     0.36500
C2302       C  0.63298221  0.83292514  0.84489344     0.36500
N2303       N  0.50729186  0.82496829  0.89223805    -0.38300
N2304       N  0.65266532  0.83649755  0.83422896    -0.38300
N2305       N  0.55458724  0.87975970  0.91784008    -0.37700
N2306       N  0.60876971  0.77651714  0.81318093    -0.37700
C2307       C  0.39951980  0.33499961  0.61670163    -0.04400
C2308       C  0.39103794  0.32155794  0.63917996    -0.01500
C2309       C  0.40817039  0.30442285  0.65229743     0.03500
C2310       C  0.43454162  0.30137225  0.64375280    -0.04400
C2311       C  0.44212320  0.31300814  0.61978689    -0.01500
C2312       C  0.42410339  0.32860935  0.60570535     0.03500
C2313       C  0.36406584  0.32427446  0.64801307     0.38100
C2314       C  0.46834658  0.30923948  0.60948617     0.38100
C2315       C  0.43014459  0.33653436  0.57914340     0.36500
C2316       C  0.39788891  0.28874249  0.67360120     0.36500
N2317       N  0.43491736  0.34256685  0.55785948    -0.38300
N2318       N  0.38951552  0.27605472  0.69033505    -0.38300
N2319       N  0.48927013  0.30629444  0.60121199    -0.37700
N2320       N  0.34255372  0.32642125  0.65492483    -0.37700
C2321       C  0.39765719  0.40944462  0.56186744    -0.04400
C2322       C  0.38964580  0.42641390  0.54122988    -0.01500
C2323       C  0.40801667  0.44239985  0.52802410     0.03500
C2324       C  0.43455702  0.44322814  0.53602927    -0.04400
C2325       C  0.44248590  0.42760441  0.55740660    -0.01500
C2326       C  0.42437386  0.41100058  0.57025561     0.03500
C2327       C  0.36217812  0.42887941  0.53407386     0.38100
C2328       C  0.46935561  0.42919241  0.56700984     0.38100
C2329       C  0.43404079  0.39646263  0.59256190     0.36500
C2330       C  0.39953972  0.45754010  0.50552708     0.36500
N2331       N  0.44280904  0.38595763  0.61062148    -0.38300
N2332       N  0.39280163  0.46951272  0.48753624    -0.38300
N2333       N  0.49071755  0.43038800  0.57469821    -0.37700
N2334       N  0.34041543  0.43101910  0.52789241    -0.37700
C2335       C  0.56990713  0.40311782  0.40064311    -0.04400
C2336       C  0.55665665  0.42500943  0.39040645    -0.01500
C2337       C  0.54432047  0.44310309  0.40719051     0.03500
C2338       C  0.54463490  0.43943302  0.43477766    -0.04400
C2339       C  0.55804771  0.41728206  0.44492463    -0.01500
C2340       C  0.57138560  0.39992915  0.42798846     0.03500
C2341       C  0.55771492  0.43046299  0.36258680     0.38100
C2342       C  0.55832540  0.41184691  0.47279596     0.38100
C2343       C  0.58744370  0.37941384  0.43908569     0.36500
C2344       C  0.53123156  0.46539654  0.39550612     0.36500
N2345       N  0.60053649  0.36387659  0.44902359    -0.38300
N2346       N  0.52116472  0.48323382  0.38593530    -0.38300
N2347       N  0.55830610  0.40691948  0.49489730    -0.37700
N2348       N  0.55918638  0.43610154  0.34073327    -0.37700
C2349       C  0.40466209  0.64545727  0.33180241    -0.04400
C2350       C  0.39497917  0.66536146  0.31508107    -0.01500
C2351       C  0.41155354  0.68589329  0.30678642     0.03500
C2352       C  0.43808818  0.68670666  0.31484220    -0.04400
C2353       C  0.44812883  0.66606773  0.33021674    -0.01500
C2354       C  0.43151919  0.64575354  0.33887635     0.03500
C2355       C  0.36766789  0.66529882  0.30691457     0.38100
C2356       C  0.47605648  0.66484042  0.33578435     0.38100
C2357       C  0.44269105  0.62461789  0.35404533     0.36500
C2358       C  0.40102477  0.70646156  0.29036729     0.36500
N2359       N  0.45241386  0.60807730  0.36600533    -0.38300
N2360       N  0.39250193  0.72271047  0.27714676    -0.38300
N2361       N  0.49838012  0.66361295  0.33982023    -0.37700
N2362       N  0.34587718  0.66535819  0.30045059    -0.37700
C2363       C  0.40794863  0.57531329  0.39086139    -0.04400
C2364       C  0.41170427  0.58447801  0.41695839    -0.01500
C2365       C  0.42844380  0.57105931  0.43442205     0.03500
C2366       C  0.44177092  0.54830177  0.42644184    -0.04400
C2367       C  0.43934226  0.53981579  0.40031315    -0.01500
C2368       C  0.42320314  0.55357793  0.38246714     0.03500
C2369       C  0.39925068  0.60797236  0.42660638     0.38100
C2370       C  0.45277325  0.51634248  0.39189908     0.38100
C2371       C  0.42393125  0.54621738  0.35504035     0.36500
C2372       C  0.43266576  0.58133022  0.46067678     0.36500
N2373       N  0.42464192  0.54034189  0.33317340    -0.38300
N2374       N  0.43608651  0.58950618  0.48153478    -0.38300
N2375       N  0.46318330  0.49747463  0.38509730    -0.37700
N2376       N  0.39045552  0.62688759  0.43532491    -0.37700
C2377       C  0.43495933  0.61345826  0.59599599    -0.04400
C2378       C  0.42752815  0.58674739  0.59384775    -0.01500
C2379       C  0.44167146  0.56953540  0.57755362     0.03500
C2380       C  0.46211962  0.57880900  0.56147882    -0.04400
C2381       C  0.46784706  0.60569321  0.56138460    -0.01500
C2382       C  0.45460966  0.62288190  0.57863813     0.03500
C2383       C  0.40477369  0.57628501  0.60714042     0.38100
C2384       C  0.48611498  0.61597048  0.54228251     0.38100
C2385       C  0.46022845  0.65056180  0.57707536     0.36500
C2386       C  0.43520101  0.54187884  0.57756913     0.36500
N2387       N  0.46500033  0.67258149  0.57570977    -0.38300
N2388       N  0.43002910  0.51989639  0.57752800    -0.38300
N2389       N  0.50029577  0.62434645  0.52676647    -0.37700
N2390       N  0.38629886  0.56697458  0.61640256    -0.37700
C2391       C  0.43537228  0.68189152  0.67294577    -0.04400
C2392       C  0.41928025  0.69850351  0.68891821    -0.01500
C2393       C  0.42991211  0.71255201  0.71022042     0.03500
C2394       C  0.45663808  0.71024159  0.71668635    -0.04400
C2395       C  0.47281625  0.69391469  0.70145469    -0.01500
C2396       C  0.46213870  0.67874387  0.68085264     0.03500
C2397       C  0.39095062  0.69957676  0.68558331     0.38100
C2398       C  0.50074921  0.69246198  0.70716580     0.38100
C2399       C  0.47837744  0.65773476  0.67103747     0.36500
C2400       C  0.41270757  0.72811503  0.72671167     0.36500
N2401       N  0.49186383  0.64094633  0.66405270    -0.38300
N2402       N  0.39897644  0.74039782  0.73987285    -0.38300
N2403       N  0.52300860  0.69133967  0.71160383    -0.37700
N2404       N  0.36837336  0.70072914  0.68327464    -0.37700
C2405       C  0.56003072  0.33021490  0.68324116    -0.04400
C2406       C  0.55121719  0.35023815  0.66640627    -0.01500
C2407       C  0.56845481  0.37046924  0.65860945     0.03500
C2408       C  0.59481761  0.37101746  0.66763216    -0.04400
C2409       C  0.60312624  0.35124475  0.68530995    -0.01500
C2410       C  0.58597776  0.33092654  0.69271186     0.03500
C2411       C  0.52402552  0.35053351  0.65780933     0.38100
C2412       C  0.62941467  0.35094047  0.69603526     0.38100
C2413       C  0.59552879  0.30997483  0.70931829     0.36500
C2414       C  0.55835236  0.39123449  0.64222333     0.36500
N2415       N  0.60324501  0.29326380  0.72243972    -0.38300
N2416       N  0.54959530  0.40748698  0.62916848    -0.38300
N2417       N  0.64980753  0.34961206  0.70589219    -0.37700
N2418       N  0.50230998  0.35082650  0.65110024    -0.37700
C2419       C  0.59639683  0.44298429  0.60832288    -0.04400
C2420       C  0.59797329  0.43764666  0.58112411    -0.01500
C2421       C  0.58471727  0.45356764  0.56287573     0.03500
C2422       C  0.56696012  0.47290741  0.57127876    -0.04400
C2423       C  0.56417713  0.47760335  0.59835374    -0.01500
C2424       C  0.57899314  0.46296346  0.61674285     0.03500
C2425       C  0.61154800  0.41498434  0.57113423     0.38100
C2426       C  0.54543089  0.49688221  0.60736114     0.38100
C2427       C  0.57447473  0.46693808  0.64447574     0.36500
C2428       C  0.59031482  0.45080368  0.53513760     0.36500
N2429       N  0.57050029  0.46988672  0.66657104    -0.38300
N2430       N  0.59522658  0.44906761  0.51310570    -0.38300
N2431       N  0.53046544  0.51226456  0.61455793    -0.37700
N2432       N  0.62079263  0.39671960  0.56156673    -0.37700
C2433       C  0.66729022  0.43826291  0.68196164    -0.04400
C2434       C  0.66610558  0.46504580  0.68910840    -0.01500
C2435       C  0.68814084  0.47740377  0.70054181     0.03500
C2436       C  0.70999815  0.46267243  0.70864827    -0.04400
C2437       C  0.70919883  0.43540726  0.70642025    -0.01500
C2438       C  0.68842642  0.42322061  0.69276741     0.03500
C2439       C  0.64176920  0.47955275  0.68782376     0.38100
C2440       C  0.73058049  0.41990138  0.71707977     0.38100
C2441       C  0.69049360  0.39532586  0.68849042     0.36500
C2442       C  0.68811775  0.50539955  0.70426740     0.36500
N2443       N  0.69371323  0.37336226  0.68442308    -0.38300
N2444       N  0.68798168  0.52779350  0.70685674    -0.38300
N2445       N  0.74752968  0.40755015  0.72569214    -0.37700
N2446       N  0.62256266  0.49159566  0.68738399    -0.37700
C2447       C  0.60426364  0.67589922  0.37595838    -0.04400
C2448       C  0.61174891  0.68967188  0.35333071    -0.01500
C2449       C  0.59416667  0.70691918  0.34092729     0.03500
C2450       C  0.56787448  0.70959334  0.34999391    -0.04400
C2451       C  0.56007406  0.69477953  0.37214220    -0.01500
C2452       C  0.57821787  0.67814009  0.38502007     0.03500
C2453       C  0.63723685  0.68492478  0.34164838     0.38100
C2454       C  0.53339306  0.69633164  0.38186721     0.38100
C2455       C  0.56983728  0.66326675  0.40756833     0.36500
C2456       C  0.60395865  0.72245798  0.31926164     0.36500
N2457       N  0.56231326  0.65146920  0.42530754    -0.38300
N2458       N  0.61187585  0.73474676  0.30200480    -0.38300
N2459       N  0.51216693  0.69749437  0.38982007    -0.37700
N2460       N  0.65692446  0.68065367  0.33126686    -0.37700
C2461       C  0.57810795  0.57417718  0.46505727    -0.04400
C2462       C  0.58221094  0.59971161  0.47471402    -0.01500
C2463       C  0.59922463  0.61713307  0.46148140     0.03500
C2464       C  0.61291014  0.60909048  0.43862035    -0.04400
C2465       C  0.61019730  0.58294927  0.43018718    -0.01500
C2466       C  0.59300320  0.56569946  0.44323628     0.03500
C2467       C  0.56856863  0.60845370  0.49799073     0.38100
C2468       C  0.62573054  0.57306828  0.40861285     0.38100
C2469       C  0.59138193  0.53873776  0.43455100     0.36500
C2470       C  0.60151196  0.64376056  0.47092140     0.36500
N2471       N  0.59013084  0.51727236  0.42762202    -0.38300
N2472       N  0.60329232  0.66498089  0.47847092    -0.38300
N2473       N  0.63773673  0.56422415  0.39158996    -0.37700
N2474       N  0.55806980  0.61552051  0.51675715    -0.37700
C2475       C  0.21337127  0.46129463  0.78826028    -0.04400
C2476       C  0.21117489  0.43420107  0.79242381    -0.01500
C2477       C  0.18891172  0.42395551  0.80498757     0.03500
C2478       C  0.16948525  0.44077350  0.81601850    -0.04400
C2479       C  0.16968579  0.46725339  0.80796815    -0.01500
C2480       C  0.19165401  0.47745350  0.79442847     0.03500
C2481       C  0.23219292  0.41660730  0.78483015     0.38100
C2482       C  0.14665303  0.48354600  0.81062587     0.38100
C2483       C  0.19134833  0.50446937  0.78587516     0.36500
C2484       C  0.18602386  0.39576441  0.80603600     0.36500
N2485       N  0.19102823  0.52595176  0.77895028    -0.38300
N2486       N  0.18346394  0.37333191  0.80630772    -0.38300
N2487       N  0.12842928  0.49695540  0.81208290    -0.37700
N2488       N  0.24884980  0.40248547  0.77881528    -0.37700
C2489       C  0.31841426  0.43848506  0.67191799    -0.04400
C2490       C  0.33866014  0.42047294  0.67800208    -0.01500
C2491       C  0.34983717  0.40451451  0.65823575     0.03500
C2492       C  0.34044352  0.40576227  0.63217479    -0.04400
C2493       C  0.32143054  0.42500848  0.62586815    -0.01500
C2494       C  0.31047874  0.44110963  0.64550994     0.03500
C2495       C  0.34885270  0.41899690  0.70452739     0.38100
C2496       C  0.31355656  0.42896700  0.59884784     0.38100
C2497       C  0.29058532  0.46010424  0.63839587     0.36500
C2498       C  0.37137973  0.38735606  0.66499173     0.36500
N2499       N  0.27482152  0.47531348  0.63263198    -0.38300
N2500       N  0.38897876  0.37440713  0.67101867    -0.38300
N2501       N  0.30711507  0.43223292  0.57737385    -0.37700
N2502       N  0.35701176  0.41784030  0.72565743    -0.37700
C2503       C  0.35580270  0.56494140  0.69696162    -0.04400
C2504       C  0.38181758  0.56184052  0.68808899    -0.01500
C2505       C  0.39383431  0.58189905  0.67351399     0.03500
C2506       C  0.37944231  0.60452017  0.66666356    -0.04400
C2507       C  0.35443195  0.60855350  0.67760336    -0.01500
C2508       C  0.34252634  0.58876605  0.69241561     0.03500
C2509       C  0.39612322  0.53801986  0.69362868     0.38100
C2510       C  0.34162982  0.63373143  0.67517477     0.38100
C2511       C  0.31703743  0.59352180  0.70412755     0.36500
C2512       C  0.42133545  0.57971789  0.66644421     0.36500
N2513       N  0.29677403  0.59729853  0.71356222    -0.38300
N2514       N  0.44327360  0.57802835  0.66085068    -0.38300
N2515       N  0.33125521  0.65372319  0.67336989    -0.37700
N2516       N  0.40758555  0.51904604  0.69808483    -0.37700
C2517       C  0.33349486  0.38518421  0.10140745    -0.04400
C2518       C  0.33785764  0.35852774  0.09641971    -0.01500
C2519       C  0.32372127  0.34577475  0.07637884     0.03500
C2520       C  0.30398548  0.35922447  0.06208747    -0.04400
C2521       C  0.30056819  0.38625026  0.06625166    -0.01500
C2522       C  0.31568360  0.39926366  0.08536183     0.03500
C2523       C  0.35597829  0.34381740  0.11262243     0.38100
C2524       C  0.28068521  0.40061991  0.05187697     0.38100
C2525       C  0.31330216  0.42737555  0.08806987     0.36500
C2526       C  0.32982073  0.31877322  0.07032744     0.36500
N2527       N  0.31149366  0.44977019  0.09026320    -0.38300
N2528       N  0.33478359  0.29729487  0.06542066    -0.38300
N2529       N  0.26480766  0.41216826  0.04053345    -0.37700
N2530       N  0.37030109  0.33187049  0.12549555    -0.37700
C2531       C  0.43558905  0.46862151  0.07327566    -0.04400
C2532       C  0.43497693  0.47585214  0.09998396    -0.01500
C2533       C  0.41788683  0.46294018  0.11763510     0.03500
C2534       C  0.39985158  0.44378028  0.10856439    -0.04400
C2535       C  0.40108263  0.43632507  0.08184434    -0.01500
C2536       C  0.41986318  0.44751013  0.06499238     0.03500
C2537       C  0.45234726  0.49607686  0.10965872     0.38100
C2538       C  0.38324611  0.41734670  0.07070999     0.38100
C2539       C  0.42502758  0.43521394  0.03991823     0.36500
C2540       C  0.42040556  0.46812313  0.14543726     0.36500
N2541       N  0.42982586  0.42472021  0.02046241    -0.38300
N2542       N  0.42292568  0.47205450  0.16760577    -0.38300
N2543       N  0.37004439  0.40237162  0.06002316    -0.37700
N2544       N  0.46629319  0.51197528  0.11775995    -0.37700
C2545       C  0.59999690  0.64440229  0.84182543    -0.04400
C2546       C  0.59848242  0.66960581  0.85308464    -0.01500
C2547       C  0.58267908  0.68921090  0.84138230     0.03500
C2548       C  0.56816535  0.68392842  0.81829427    -0.04400
C2549       C  0.56883720  0.65850656  0.80769302    -0.01500
C2550       C  0.58412956  0.63882387  0.81963663     0.03500
C2551       C  0.61263977  0.67558096  0.87695752     0.38100
C2552       C  0.55399678  0.65258928  0.78414005     0.38100
C2553       C  0.58171512  0.61218994  0.81031068     0.36500
C2554       C  0.58046872  0.71457645  0.85383333     0.36500
N2555       N  0.57919678  0.59088719  0.80324312    -0.38300
N2556       N  0.57859827  0.73473985  0.86386246    -0.38300
N2557       N  0.54221729  0.64791876  0.76531381    -0.37700
N2558       N  0.62327687  0.68092683  0.89626618    -0.37700
C2559       C  0.59778264  0.56957878  0.89522059    -0.04400
C2560       C  0.60569859  0.54790461  0.91064784    -0.01500
C2561       C  0.58749552  0.53468606  0.92674065     0.03500
C2562       C  0.56106669  0.54276654  0.92765457    -0.04400
C2563       C  0.55280293  0.56356021  0.91147350    -0.01500
C2564       C  0.57100106  0.57697587  0.89553775     0.03500
C2565       C  0.63281606  0.53954931  0.91133278     0.38100
C2566       C  0.52525408  0.57085581  0.91075820     0.38100
C2567       C  0.56157476  0.59808101  0.87922418     0.36500
C2568       C  0.59639225  0.51349186  0.94337968     0.36500
N2569       N  0.55296986  0.61482307  0.86671929    -0.38300
N2570       N  0.60355911  0.49659109  0.95657450    -0.38300
N2571       N  0.50329127  0.57660470  0.91012977    -0.37700
N2572       N  0.65408564  0.53182799  0.91267946    -0.37700
C2573       C  0.67317072  0.57524980  0.83008213    -0.04400
C2574       C  0.69390478  0.56056662  0.84202270    -0.01500
C2575       C  0.71395214  0.54918025  0.82678426     0.03500
C2576       C  0.71428857  0.55253177  0.79943198    -0.04400
C2577       C  0.69358830  0.56615498  0.78730847    -0.01500
C2578       C  0.67216976  0.57537024  0.80218174     0.03500
C2579       C  0.69590861  0.55767358  0.87021145     0.38100
C2580       C  0.69412416  0.57084450  0.75930634     0.38100
C2581       C  0.64844058  0.58174904  0.78794733     0.36500
C2582       C  0.73528857  0.53529651  0.83964129     0.36500
N2583       N  0.62999233  0.58646727  0.77557885    -0.38300
N2584       N  0.75224250  0.52426210  0.84990437    -0.38300
N2585       N  0.69464953  0.57539154  0.73714289    -0.37700
N2586       N  0.69899953  0.55593953  0.89258064    -0.37700
C2587       C  0.39785313  0.67269105  0.87610658    -0.04400
C2588       C  0.42454604  0.66544657  0.87969311    -0.01500
C2589       C  0.44488063  0.68073352  0.86877810     0.03500
C2590       C  0.43889636  0.70358234  0.85478091    -0.04400
C2591       C  0.41257399  0.71059917  0.85060310    -0.01500
C2592       C  0.39219864  0.69489890  0.86045288     0.03500
C2593       C  0.43175742  0.64234127  0.89423995     0.38100
C2594       C  0.40644097  0.73375673  0.83539732     0.38100
C2595       C  0.36556677  0.70086012  0.85249390     0.36500
C2596       C  0.47212402  0.67291234  0.87172941     0.36500
N2597       N  0.34482039  0.70630047  0.84510380    -0.38300
N2598       N  0.49385914  0.66671462  0.87395567    -0.38300
N2599       N  0.40156285  0.75223255  0.82335394    -0.37700
N2600       N  0.43888298  0.62390327  0.90516903    -0.37700
C2601       C  0.33569836  0.60474037  0.86208862    -0.04400
C2602       C  0.34571011  0.60712769  0.83642667    -0.01500
C2603       C  0.33737220  0.58987334  0.81647766     0.03500
C2604       C  0.31872705  0.57013165  0.82183562    -0.04400
C2605       C  0.30890473  0.56751298  0.84751954    -0.01500
C2606       C  0.31744534  0.58458721  0.86755968     0.03500
C2607       C  0.36421207  0.62762962  0.83009696     0.38100
C2608       C  0.29107460  0.54633878  0.85369821     0.38100
C2609       C  0.30877655  0.58025057  0.89425145     0.36500
C2610       C  0.34774738  0.59276305  0.79017790     0.36500
N2611       N  0.30213860  0.57669960  0.91560010    -0.38300
N2612       N  0.35607225  0.59497179  0.76923705    -0.38300
N2613       N  0.27694210  0.52938191  0.85865059    -0.37700
N2614       N  0.37906629  0.64369791  0.82437604    -0.37700
C2615       C  0.39117298  0.60598994  0.93556575    -0.04400
C2616       C  0.40661949  0.61549324  0.95670670    -0.01500
C2617       C  0.42434352  0.59882939  0.96993953     0.03500
C2618       C  0.42702722  0.57254695  0.96214641    -0.04400
C2619       C  0.41211964  0.56319439  0.94074224    -0.01500
C2620       C  0.39445495  0.57979160  0.92745964     0.03500
C2621       C  0.40558185  0.64286288  0.96389927     0.38100
C2622       C  0.41567389  0.53656666  0.93162431     0.38100
C2623       C  0.38006375  0.56950259  0.90525877     0.36500
C2624       C  0.43955780  0.60867811  0.99186969     0.36500
N2625       N  0.36945684  0.56035921  0.88743708    -0.38300
N2626       N  0.45167801  0.61651134  0.00938171    -0.38300
N2627       N  0.41852994  0.51536263  0.92438022    -0.37700
N2628       N  0.40481144  0.66470729  0.96957068    -0.37700
C2629       C  0.31547697  0.67395329  0.93005447    -0.04400
C2630       C  0.30347363  0.69322342  0.91402136    -0.01500
C2631       C  0.29260718  0.71593952  0.92511141     0.03500
C2632       C  0.29045461  0.71837419  0.95261017    -0.04400
C2633       C  0.29701279  0.69648146  0.96829952    -0.01500
C2634       C  0.30878486  0.67412147  0.95698395     0.03500
C2635       C  0.30065116  0.68902857  0.88608224     0.38100
C2636       C  0.29064183  0.69631100  0.99599756     0.38100
C2637       C  0.30986469  0.65039142  0.97227185     0.36500
C2638       C  0.28461556  0.73700860  0.90786728     0.36500
N2639       N  0.31015782  0.63151168  0.98467371    -0.38300
N2640       N  0.27833641  0.75373777  0.89401111    -0.38300
N2641       N  0.28554720  0.69610431  0.01806276    -0.37700
N2642       N  0.29710786  0.68522659  0.86402597    -0.37700
C2643       C  0.36074898  0.33744654  0.89998594    -0.04400
C2644       C  0.33519075  0.33208884  0.89055088    -0.01500
C2645       C  0.31586519  0.32213176  0.90759742     0.03500
C2646       C  0.32174173  0.31828478  0.93427537    -0.04400
C2647       C  0.34762415  0.32214241  0.94335828    -0.01500
C2648       C  0.36733755  0.33050418  0.92592421     0.03500
C2649       C  0.32858146  0.33675255  0.86336253     0.38100
C2650       C  0.35386316  0.31782698  0.97072600     0.38100
C2651       C  0.39451865  0.33127689  0.93445568     0.36500
C2652       C  0.28997118  0.31561007  0.89768627     0.36500
N2653       N  0.41623194  0.33179339  0.94115219    -0.38300
N2654       N  0.26938172  0.31020878  0.88973155    -0.38300
N2655       N  0.35875803  0.31453320  0.99260399    -0.37700
N2656       N  0.32257790  0.34074540  0.84188752    -0.37700
C2657       C  0.37741213  0.40555736  0.83745703    -0.04400
C2658       C  0.35088205  0.41223321  0.84210203    -0.01500
C2659       C  0.33804463  0.43030823  0.82564626     0.03500
C2660       C  0.35169156  0.44213023  0.80462877    -0.04400
C2661       C  0.37881131  0.43749131  0.80174098    -0.01500
C2662       C  0.39171161  0.41992506  0.81853019     0.03500
C2663       C  0.33651324  0.40109593  0.86382553     0.38100
C2664       C  0.39334938  0.44956174  0.78054059     0.38100
C2665       C  0.41994587  0.41703124  0.81631610     0.36500
C2666       C  0.31071323  0.43679376  0.83056411     0.36500
N2667       N  0.44243937  0.41503038  0.81406409    -0.38300
N2668       N  0.28892854  0.44185323  0.83449040    -0.38300
N2669       N  0.40491795  0.45909851  0.76359305    -0.37700
N2670       N  0.32461176  0.39327488  0.88141720    -0.37700
C2671       C  0.43291858  0.39677413  0.90373907    -0.04400
C2672       C  0.45730511  0.40873072  0.89699881    -0.01500
C2673       C  0.46895867  0.42793570  0.91336846     0.03500
C2674       C  0.45589165  0.43713888  0.93602683    -0.04400
C2675       C  0.43052736  0.42700665  0.94141555    -0.01500
C2676       C  0.41996147  0.40617392  0.92652954     0.03500
C2677       C  0.47044506  0.40255791  0.87260230     0.38100
C2678       C  0.41419291  0.43851752  0.96165521     0.38100
C2679       C  0.39555576  0.39481803  0.93560411     0.36500
C2680       C  0.49386245  0.43937261  0.90564271     0.36500
N2681       N  0.37579587  0.38711582  0.94362811    -0.38300
N2682       N  0.51368004  0.44842960  0.89934961    -0.38300
N2683       N  0.40053560  0.44790712  0.97709506    -0.37700
N2684       N  0.48154491  0.39775408  0.85345220    -0.37700
C2685       C  0.42976911  0.32301194  0.83167768    -0.04400
C2686       C  0.41420955  0.31358612  0.81040327    -0.01500
C2687       C  0.42588787  0.30162371  0.78852940     0.03500
C2688       C  0.45325931  0.29724833  0.78790946    -0.04400
C2689       C  0.46813586  0.30260306  0.81079370    -0.01500
C2690       C  0.45625817  0.31447803  0.83287714     0.03500
C2691       C  0.38584281  0.31647529  0.81033154     0.38100
C2692       C  0.49557040  0.29500700  0.81218417     0.38100
C2693       C  0.47048818  0.31429482  0.85742415     0.36500
C2694       C  0.40938458  0.29488261  0.76627462     0.36500
N2695       N  0.48209694  0.31350200  0.87691523    -0.38300
N2696       N  0.39598332  0.28950240  0.74876709    -0.38300
N2697       N  0.51744868  0.28901842  0.81334364    -0.37700
N2698       N  0.36325182  0.31848315  0.80949432    -0.37700
C2699       C  0.53599586  0.58035675  0.06113429    -0.04400
C2700       C  0.55891997  0.59393489  0.05381760    -0.01500
C2701       C  0.57037613  0.61237023  0.07102983     0.03500
C2702       C  0.55929569  0.61710531  0.09606811    -0.04400
C2703       C  0.53527103  0.60443060  0.10246196    -0.01500
C2704       C  0.52381436  0.58631885  0.08505606     0.03500
C2705       C  0.57114893  0.58848242  0.02875732     0.38100
C2706       C  0.52184431  0.60928488  0.12692005     0.38100
C2707       C  0.49879038  0.57432834  0.09141135     0.36500
C2708       C  0.59302635  0.62700098  0.06219199     0.36500
N2709       N  0.47870914  0.56502999  0.09632215    -0.38300
N2710       N  0.61104562  0.63832686  0.05444241    -0.38300
N2711       N  0.50975680  0.61278635  0.14572344    -0.37700
N2712       N  0.58089410  0.58417528  0.00877183    -0.37700
C2713       C  0.56241456  0.68297229  0.17084788    -0.04400
C2714       C  0.56339612  0.71067878  0.17044230    -0.01500
C2715       C  0.55479298  0.72525833  0.19225740     0.03500
C2716       C  0.54176616  0.71284489  0.21307993    -0.04400
C2717       C  0.53700589  0.68581353  0.21179081    -0.01500
C2718       C  0.54694038  0.67098752  0.19084133     0.03500
C2719       C  0.56976004  0.72477375  0.14676390     0.38100
C2720       C  0.52304110  0.67281294  0.23290827     0.38100
C2721       C  0.54189970  0.64309218  0.19107940     0.36500
C2722       C  0.55903397  0.75321860  0.19295654     0.36500
N2723       N  0.53840421  0.62084042  0.19252143    -0.38300
N2724       N  0.56291699  0.77543879  0.19349971    -0.38300
N2725       N  0.51193120  0.66247410  0.24969214    -0.37700
N2726       N  0.57441626  0.73662675  0.12808256    -0.37700
C2727       C  0.60611507  0.40997053  0.05875994    -0.04400
C2728       C  0.58034059  0.40095387  0.05399833    -0.01500
C2729       C  0.56182739  0.41733250  0.04156102     0.03500
C2730       C  0.56920648  0.44251101  0.03321930    -0.04400
C2731       C  0.59559370  0.45048774  0.03565620    -0.01500
C2732       C  0.61419873  0.43381776  0.04748408     0.03500
C2733       C  0.57343009  0.37421554  0.06007647     0.38100
C2734       C  0.60350760  0.47600262  0.02634026     0.38100
C2735       C  0.64180656  0.44081568  0.04731443     0.36500
C2736       C  0.53521682  0.40825650  0.03711640     0.36500
N2737       N  0.66385672  0.44624891  0.04709543    -0.38300
N2738       N  0.51400207  0.40103822  0.03341503    -0.38300
N2739       N  0.60980947  0.49642573  0.01906827    -0.37700
N2740       N  0.56791405  0.35279532  0.06459708    -0.37700
C2741       C  0.70725787  0.30019890  0.03872863    -0.04400
C2742       C  0.70731413  0.30360984  0.06617837    -0.01500
C2743       C  0.69660260  0.32629528  0.07732864     0.03500
C2744       C  0.68251183  0.34450043  0.06180888    -0.04400
C2745       C  0.68685076  0.34352409  0.03437541    -0.01500
C2746       C  0.69844285  0.32116654  0.02286911     0.03500
C2747       C  0.71791279  0.28378141  0.08351637     0.38100
C2748       C  0.68358466  0.36656477  0.01833324     0.38100
C2749       C  0.70231012  0.32047217  0.99471280     0.36500
C2750       C  0.70249614  0.33170166  0.10450449     0.36500
N2751       N  0.70539338  0.32000223  0.97227860    -0.38300
N2752       N  0.70908272  0.33558673  0.12581865    -0.38300
N2753       N  0.68144715  0.38486944  0.00525643    -0.37700
N2754       N  0.72641538  0.26827811  0.09761367    -0.37700
C2755       C  0.06232669  0.61784236  0.40453933    -0.04400
C2756       C  0.07273728  0.61109777  0.42951540    -0.01500
C2757       C  0.05987198  0.59270647  0.44555880     0.03500
C2758       C  0.03647968  0.58066127  0.43710913    -0.04400
C2759       C  0.02573307  0.58734740  0.41263816    -0.01500
C2760       C  0.03854571  0.60557668  0.39632723     0.03500
C2761       C  0.09705634  0.62219020  0.43917836     0.38100
C2762       C  0.00109236  0.57567750  0.40437772     0.38100
C2763       C  0.02729105  0.61055658  0.37072536     0.36500
C2764       C  0.07149178  0.58521954  0.47047723     0.36500
N2765       N  0.01765772  0.61456048  0.35059302    -0.38300
N2766       N  0.08076493  0.57921527  0.49027609    -0.38300
N2767       N  0.98138164  0.56649699  0.39785117    -0.37700
N2768       N  0.11671264  0.62963319  0.44777534    -0.37700
C2769       C  0.07248348  0.68673057  0.32997975    -0.04400
C2770       C  0.04840859  0.70022954  0.33368788    -0.01500
C2771       C  0.03667135  0.71385054  0.31265248     0.03500
C2772       C  0.04955960  0.71562872  0.28826285    -0.04400
C2773       C  0.07547787  0.70624609  0.28604263    -0.01500
C2774       C  0.08725185  0.69292914  0.30711558     0.03500
C2775       C  0.03727190  0.70341158  0.35955707     0.38100
C2776       C  0.08987103  0.70926725  0.26170825     0.38100
C2777       C  0.11486678  0.68610747  0.30513131     0.36500
C2778       C  0.01178996  0.72713797  0.31651867     0.36500
N2779       N  0.13686067  0.68076183  0.30335992    -0.38300
N2780       N  0.99202063  0.73782189  0.31958757    -0.38300
N2781       N  0.10137452  0.71163507  0.24234488    -0.37700
N2782       N  0.02826170  0.70638620  0.38012557    -0.37700
C2783       C  0.87466788  0.41059043  0.66276176    -0.04400
C2784       C  0.88877773  0.42804254  0.67905293    -0.01500
C2785       C  0.87580153  0.44855040  0.69220829     0.03500
C2786       C  0.84813073  0.45125396  0.69036721    -0.04400
C2787       C  0.83409456  0.43359434  0.67385391    -0.01500
C2788       C  0.84747594  0.41425000  0.65942377     0.03500
C2789       C  0.91714515  0.42632014  0.68080870     0.38100
C2790       C  0.80561080  0.43422212  0.67204610     0.38100
C2791       C  0.83283634  0.39831276  0.64103681     0.36500
C2792       C  0.89144255  0.46713766  0.70700660     0.36500
N2793       N  0.82032009  0.38662682  0.62618896    -0.38300
N2794       N  0.90407006  0.48188483  0.71870822    -0.38300
N2795       N  0.78293276  0.43447571  0.67053210    -0.37700
N2796       N  0.93978006  0.42569122  0.68238820    -0.37700
C2797       C  0.93281546  0.40281589  0.59493374    -0.04400
C2798       C  0.92942624  0.43015814  0.59737749    -0.01500
C2799       C  0.94502181  0.44748470  0.58267925     0.03500
C2800       C  0.96203492  0.43806187  0.56316239    -0.04400
C2801       C  0.96451593  0.41092369  0.55945655    -0.01500
C2802       C  0.95045594  0.39336425  0.57560361     0.03500
C2803       C  0.90923270  0.44125493  0.61380702     0.38100
C2804       C  0.98061799  0.40107963  0.53828338     0.38100
C2805       C  0.95277266  0.36554232  0.57094840     0.36500
C2806       C  0.94421949  0.47527063  0.58826356     0.36500
N2807       N  0.95449689  0.34335275  0.56716245    -0.38300
N2808       N  0.94400909  0.49733027  0.59306289    -0.38300
N2809       N  0.99324741  0.39314915  0.52124879    -0.37700
N2810       N  0.89292781  0.45176803  0.62546912    -0.37700
C2811       C  0.93312842  0.33236760  0.66685848    -0.04400
C2812       C  0.92237690  0.30877841  0.67745683    -0.01500
C2813       C  0.93554396  0.29477163  0.69742888     0.03500
C2814       C  0.95848831  0.30479735  0.70929991    -0.04400
C2815       C  0.96953067  0.32792219  0.69895829    -0.01500
C2816       C  0.95675396  0.34186275  0.67874413     0.03500
C2817       C  0.89675611  0.29892199  0.67009252     0.38100
C2818       C  0.99410437  0.33815944  0.70924824     0.38100
C2819       C  0.96793749  0.36694380  0.67171686     0.36500
C2820       C  0.92527730  0.26952662  0.70548324     0.36500
N2821       N  0.97773690  0.38657260  0.66630622    -0.38300
N2822       N  0.91701902  0.24945873  0.71176251    -0.38300
N2823       N  0.01383801  0.34636288  0.71692877    -0.37700
N2824       N  0.87662954  0.28973849  0.66498175    -0.37700
C2825       C  0.90086726  0.44036065  0.39385235    -0.04400
C2826       C  0.91910318  0.45881226  0.38401697    -0.01500
C2827       C  0.93648035  0.47207526  0.40107256     0.03500
C2828       C  0.93707301  0.46590892  0.42801595    -0.04400
C2829       C  0.92085693  0.44557209  0.43735232    -0.01500
C2830       C  0.90235989  0.43349221  0.42070456     0.03500
C2831       C  0.92167918  0.46266733  0.35603327     0.38100
C2832       C  0.92396816  0.43604377  0.46401230     0.38100
C2833       C  0.88519370  0.41409556  0.43207099     0.36500
C2834       C  0.95359551  0.49216494  0.39071423     0.36500
N2835       N  0.87266501  0.39864931  0.44279855    -0.38300
N2836       N  0.96726991  0.50811313  0.38233902    -0.38300
N2837       N  0.92657231  0.42831187  0.48513762    -0.37700
N2838       N  0.92450675  0.46544229  0.33375077    -0.37700
C2839       C  0.83367234  0.60723211  0.63266706    -0.04400
C2840       C  0.81026163  0.59317726  0.62708419    -0.01500
C2841       C  0.79793765  0.57793713  0.64661014     0.03500
C2842       C  0.80834799  0.57700438  0.67222632    -0.04400
C2843       C  0.83209040  0.59032867  0.67763767    -0.01500
C2844       C  0.84511748  0.60454534  0.65780549     0.03500
C2845       C  0.79944932  0.59323810  0.60076761     0.38100
C2846       C  0.84381277  0.58866443  0.70353513     0.38100
C2847       C  0.87073034  0.61544628  0.66350160     0.36500
C2848       C  0.77430830  0.56339553  0.64034036     0.36500
N2849       N  0.89146682  0.62311670  0.66869091    -0.38300
N2850       N  0.75553001  0.55170279  0.63528844    -0.38300
N2851       N  0.85315053  0.58747861  0.72417128    -0.37700
N2852       N  0.79090770  0.59325515  0.57975758    -0.37700
C2853       C  0.89033975  0.60600712  0.55858046    -0.04400
C2854       C  0.88876056  0.57888828  0.56267725    -0.01500
C2855       C  0.90605609  0.56179947  0.54959792     0.03500
C2856       C  0.92605566  0.57175536  0.53306573    -0.04400
C2857       C  0.92673847  0.59888639  0.52796286    -0.01500
C2858       C  0.90879618  0.61586245  0.54039170     0.03500
C2859       C  0.86903044  0.56831236  0.58012587     0.38100
C2860       C  0.94555636  0.60945664  0.50950249     0.38100
C2861       C  0.91063125  0.64373734  0.53571513     0.36500
C2862       C  0.90297386  0.53392690  0.55340163     0.36500
N2863       N  0.91216158  0.66596292  0.53210027    -0.38300
N2864       N  0.89994897  0.51172885  0.55612154    -0.38300
N2865       N  0.96051366  0.61793921  0.49476889    -0.37700
N2866       N  0.85350794  0.55938963  0.59397024    -0.37700
C2867       C  0.10757977  0.40980897  0.43660661    -0.04400
C2868       C  0.10418065  0.43558298  0.42707154    -0.01500
C2869       C  0.08752533  0.45336949  0.44013281     0.03500
C2870       C  0.07322635  0.44566857  0.46254601    -0.04400
C2871       C  0.07704781  0.42030139  0.47260043    -0.01500
C2872       C  0.09367680  0.40241213  0.45958979     0.03500
C2873       C  0.11721253  0.44436595  0.40350297     0.38100
C2874       C  0.06330978  0.41210215  0.49606169     0.38100
C2875       C  0.09511589  0.37599358  0.46959907     0.36500
C2876       C  0.08567528  0.48004542  0.43066942     0.36500
N2877       N  0.09621301  0.35520043  0.47829752    -0.38300
N2878       N  0.08425290  0.50127313  0.42311780    -0.38300
N2879       N  0.05265857  0.40552530  0.51491345    -0.37700
N2880       N  0.12642138  0.45233663  0.38444476    -0.37700
C2881       C  0.10006509  0.57025923  0.60506529    -0.04400
C2882       C  0.10720017  0.54724096  0.59109626    -0.01500
C2883       C  0.08952331  0.53534424  0.57328718     0.03500
C2884       C  0.06387346  0.54526608  0.56996250    -0.04400
C2885       C  0.05655841  0.56792315  0.58397208    -0.01500
C2886       C  0.07487607  0.58113285  0.60007302     0.03500
C2887       C  0.13315136  0.53592950  0.59392962     0.38100
C2888       C  0.02969679  0.57740543  0.58256566     0.38100
C2889       C  0.06738673  0.60641533  0.61026004     0.36500
C2890       C  0.09833530  0.51349006  0.55746523     0.36500
N2891       N  0.06073695  0.62692823  0.61700782    -0.38300
N2892       N  0.10546244  0.49620263  0.54474752    -0.38300
N2893       N  0.00826966  0.58486488  0.58166396    -0.37700
N2894       N  0.15349266  0.52615180  0.59621960    -0.37700
C2895       C  0.21662491  0.54797260  0.70620608    -0.04400
C2896       C  0.21140277  0.57475864  0.70761863    -0.01500
C2897       C  0.19005802  0.58545758  0.69371341     0.03500
C2898       C  0.17241915  0.56928513  0.67889160    -0.04400
C2899       C  0.17605851  0.54165596  0.68100291    -0.01500
C2900       C  0.19852882  0.53138248  0.69372107     0.03500
C2901       C  0.22851248  0.59164252  0.72291639     0.38100
C2902       C  0.15707603  0.52285102  0.67168810     0.38100
C2903       C  0.20268895  0.50333356  0.69484036     0.36500
C2904       C  0.18727019  0.61360903  0.69449996     0.36500
N2905       N  0.20604304  0.48103455  0.69584088    -0.38300
N2906       N  0.18577326  0.63606466  0.69589322    -0.38300
N2907       N  0.14265965  0.50664530  0.66510046    -0.37700
N2908       N  0.24177588  0.60519457  0.73534184    -0.37700
C2909       C  0.95649419  0.71194093  0.78660496    -0.04400
C2910       C  0.96456571  0.68660306  0.79448494    -0.01500
C2911       C  0.95342323  0.67444791  0.81667191     0.03500
C2912       C  0.93425660  0.68731555  0.83242893    -0.04400
C2913       C  0.92947440  0.71415004  0.82672871    -0.01500
C2914       C  0.93881262  0.72554005  0.80319014     0.03500
C2915       C  0.98430170  0.67226705  0.77980836     0.38100
C2916       C  0.91713456  0.73151069  0.84534581     0.38100
C2917       C  0.92919063  0.75124278  0.79598190     0.36500
C2918       C  0.96184924  0.64806128  0.82279552     0.36500
N2919       N  0.92130400  0.77164744  0.79031845    -0.38300
N2920       N  0.96905846  0.62718463  0.82748344    -0.38300
N2921       N  0.90772525  0.74637981  0.85959037    -0.37700
N2922       N  0.99989569  0.66060006  0.76823351    -0.37700
C2923       C  0.04606390  0.79945434  0.78393677    -0.04400
C2924       C  0.07266356  0.80695073  0.78369888    -0.01500
C2925       C  0.08374407  0.81938972  0.80562208     0.03500
C2926       C  0.06773682  0.82736329  0.82713724    -0.04400
C2927       C  0.04219250  0.81645360  0.82879050    -0.01500
C2928       C  0.03129701  0.80304906  0.80710660     0.03500
C2929       C  0.08863105  0.80306195  0.76045406     0.38100
C2930       C  0.02823903  0.81555912  0.85342060     0.38100
C2931       C  0.00516443  0.79192911  0.80917912     0.36500
C2932       C  0.11194119  0.82370247  0.80569387     0.36500
N2933       N  0.98437028  0.78303073  0.81094771    -0.38300
N2934       N  0.13442944  0.82678276  0.80529254    -0.38300
N2935       N  0.01683885  0.81422808  0.87295004    -0.37700
N2936       N  0.10139431  0.80009110  0.74197413    -0.37700
C2937       C  0.10341924  0.63870446  0.66739067    -0.04400
C2938       C  0.11334354  0.66332347  0.67470078    -0.01500
C2939       C  0.09731524  0.68140727  0.68813100     0.03500
C2940       C  0.07012629  0.67628440  0.69205564    -0.04400
C2941       C  0.06076913  0.65072366  0.68606294    -0.01500
C2942       C  0.07776752  0.63184555  0.67506798     0.03500
C2943       C  0.14033330  0.67010593  0.66878342     0.38100
C2944       C  0.03387317  0.64314493  0.69144294     0.38100
C2945       C  0.06907507  0.60498916  0.67235883     0.36500
C2946       C  0.10962372  0.70442883  0.69926107     0.36500
N2947       N  0.06220955  0.58357059  0.67024507    -0.38300
N2948       N  0.11965874  0.72249588  0.70850057    -0.38300
N2949       N  0.01245353  0.63688109  0.69560401    -0.37700
N2950       N  0.16162840  0.67613191  0.66377008    -0.37700
C2951       C  0.94327314  0.69746067  0.64693482    -0.04400
C2952       C  0.95001532  0.67972362  0.62697990    -0.01500
C2953       C  0.93060873  0.66325186  0.61607494     0.03500
C2954       C  0.90426044  0.66536641  0.62434762    -0.04400
C2955       C  0.89821079  0.68142524  0.64597087    -0.01500
C2956       C  0.91753011  0.69760503  0.65703502     0.03500
C2957       C  0.97702568  0.67798903  0.61820181     0.38100
C2958       C  0.87256735  0.67981335  0.65811482     0.38100
C2959       C  0.91088874  0.71452220  0.67887292     0.36500
C2960       C  0.93834478  0.64308603  0.59788706     0.36500
N2961       N  0.90569873  0.72797629  0.69631147    -0.38300
N2962       N  0.94585746  0.62662441  0.58435395    -0.38300
N2963       N  0.85258856  0.67783517  0.66865963    -0.37700
N2964       N  0.99857837  0.67661458  0.61121976    -0.37700
C2965       C  0.69772056  0.22009486  0.54394183    -0.04400
C2966       C  0.66997028  0.21960918  0.54541972    -0.01500
C2967       C  0.65684000  0.19692597  0.55365873     0.03500
C2968       C  0.67107286  0.17554203  0.56435264    -0.04400
C2969       C  0.69844417  0.17456923  0.55928266    -0.01500
C2970       C  0.71171625  0.19684535  0.54957724     0.03500
C2971       C  0.65449521  0.24269920  0.53958918     0.38100
C2972       C  0.71247942  0.15001665  0.56024139     0.38100
C2973       C  0.73966714  0.19524371  0.54427181     0.36500
C2974       C  0.62843812  0.19576590  0.55084069     0.36500
N2975       N  0.76192682  0.19386349  0.53999108    -0.38300
N2976       N  0.60584870  0.19493544  0.54852236    -0.38300
N2977       N  0.72388560  0.13049399  0.56059776    -0.37700
N2978       N  0.64200867  0.26101776  0.53509138    -0.37700
C2979       C  0.67513310  0.31606372  0.42986875    -0.04400
C2980       C  0.68277543  0.33495894  0.41113822    -0.01500
C2981       C  0.66390429  0.34662747  0.39447495     0.03500
C2982       C  0.63711770  0.33971396  0.39638074    -0.04400
C2983       C  0.62954798  0.32066230  0.41497410    -0.01500
C2984       C  0.64837612  0.30892568  0.43152484     0.03500
C2985       C  0.70994721  0.34342260  0.40971251     0.38100
C2986       C  0.60203329  0.31413410  0.41832094     0.38100
C2987       C  0.64005102  0.28934037  0.45025564     0.36500
C2988       C  0.67242545  0.36550565  0.37520143     0.36500
N2989       N  0.63333667  0.27379206  0.46521725    -0.38300
N2990       N  0.68000369  0.38052077  0.36012049    -0.38300
N2991       N  0.58009406  0.30932278  0.42159913    -0.37700
N2992       N  0.73158449  0.35022395  0.40859819    -0.37700
C2993       C  0.81942805  0.32384117  0.56693133    -0.04400
C2994       C  0.83987761  0.33887759  0.55579765    -0.01500
C2995       C  0.85942428  0.35020517  0.57182444     0.03500
C2996       C  0.85933611  0.34584346  0.59907919    -0.04400
C2997       C  0.83867105  0.33103458  0.61024253    -0.01500
C2998       C  0.81890732  0.32000348  0.59423342     0.03500
C2999       C  0.84115687  0.34225683  0.52759432     0.38100
C3000       C  0.83630919  0.32919952  0.63847422     0.38100
C3001       C  0.79730334  0.30584082  0.60601774     0.36500
C3002       C  0.87932339  0.36656118  0.56002270     0.36500
N3003       N  0.78002972  0.29459531  0.61540807    -0.38300
N3004       N  0.89459556  0.37988721  0.54997828    -0.38300
N3005       N  0.83389536  0.32830611  0.66097207    -0.37700
N3006       N  0.84220715  0.34484408  0.50511848    -0.37700
C3007       C  0.68886203  0.35652209  0.56215508    -0.04400
C3008       C  0.67327281  0.34219361  0.58031184    -0.01500
C3009       C  0.65841876  0.35523101  0.59959935     0.03500
C3010       C  0.66011217  0.38246211  0.60213035    -0.04400
C3011       C  0.67567557  0.39686246  0.58434677    -0.01500
C3012       C  0.68965757  0.38408010  0.56430326     0.03500
C3013       C  0.67363678  0.31387425  0.58062989     0.38100
C3014       C  0.67648005  0.42514973  0.58607981     0.38100
C3015       C  0.70461157  0.39965100  0.54590373     0.36500
C3016       C  0.64203778  0.34041509  0.61741395     0.36500
N3017       N  0.71657411  0.41223124  0.53140085    -0.38300
N3018       N  0.62891678  0.32832522  0.63131864    -0.38300
N3019       N  0.67700059  0.44766544  0.58758143    -0.37700
N3020       N  0.67402231  0.29131397  0.58120233    -0.37700
C3021       C  0.80135445  0.35749890  0.44155458    -0.04400
C3022       C  0.82199494  0.34445920  0.42813978    -0.01500
C3023       C  0.83684618  0.35756274  0.40891199     0.03500
C3024       C  0.83247958  0.38424940  0.40407352    -0.04400
C3025       C  0.81454619  0.39808876  0.42015994    -0.01500
C3026       C  0.79832759  0.38467766  0.43795818     0.03500
C3027       C  0.82844969  0.31757047  0.43430065     0.38100
C3028       C  0.81316363  0.42636634  0.41888947     0.38100
C3029       C  0.77782971  0.39892836  0.45152101     0.36500
C3030       C  0.85611043  0.34325485  0.39375090     0.36500
N3031       N  0.76145298  0.41038413  0.46219053    -0.38300
N3032       N  0.87152362  0.33166503  0.38187588    -0.38300
N3033       N  0.81214402  0.44889165  0.41789936    -0.37700
N3034       N  0.83370437  0.29617710  0.43925250    -0.37700
C3035       C  0.16500130  0.90152511  0.63298232    -0.04400
C3036       C  0.15667510  0.92782075  0.63481543    -0.01500
C3037       C  0.16894624  0.94520263  0.65248468     0.03500
C3038       C  0.18715990  0.93603994  0.67139377    -0.04400
C3039       C  0.19402221  0.90930864  0.67103246    -0.01500
C3040       C  0.18337269  0.89231762  0.65181861     0.03500
C3041       C  0.13443620  0.93734761  0.61994257     0.38100
C3042       C  0.21301243  0.89933962  0.68971393     0.38100
C3043       C  0.19066934  0.86498917  0.65237523     0.36500
C3044       C  0.16284849  0.97279008  0.65058159     0.36500
N3045       N  0.19684912  0.84328862  0.65297247    -0.38300
N3046       N  0.15862373  0.99484491  0.64841668    -0.38300
N3047       N  0.22817747  0.89136529  0.70458521    -0.37700
N3048       N  0.11604806  0.94573710  0.60962033    -0.37700
C3049       C  0.10383801  0.83644290  0.61782938    -0.04400
C3050       C  0.07718338  0.84423684  0.62048243    -0.01500
C3051       C  0.05875349  0.82764364  0.63294051     0.03500
C3052       C  0.06670017  0.80338970  0.64330498    -0.04400
C3053       C  0.09322748  0.79596540  0.64143867    -0.01500
C3054       C  0.11180814  0.81275933  0.63003021     0.03500
C3055       C  0.06836517  0.86952846  0.61150690     0.38100
C3056       C  0.10136437  0.77030812  0.65025992     0.38100
C3057       C  0.13938544  0.80580730  0.63216526     0.36500
C3058       C  0.03160989  0.83580661  0.63564158     0.36500
N3059       N  0.16124233  0.79986590  0.63379218    -0.38300
N3060       N  0.00994511  0.84224737  0.63777429    -0.38300
N3061       N  0.10794316  0.74972244  0.65675375    -0.37700
N3062       N  0.06069731  0.88979962  0.60511633    -0.37700
C3063       C  0.11060201  0.90712162  0.55785900    -0.04400
C3064       C  0.08633481  0.89814859  0.54823172    -0.01500
C3065       C  0.06890961  0.91545283  0.53561431     0.03500
C3066       C  0.07539481  0.94238575  0.53283928    -0.04400
C3067       C  0.10103130  0.95058293  0.54048001    -0.01500
C3068       C  0.11874164  0.93270333  0.55198580     0.03500
C3069       C  0.07962617  0.87069746  0.55033449     0.38100
C3070       C  0.10956562  0.97734871  0.53699988     0.38100
C3071       C  0.14558267  0.94053948  0.55757557     0.36500
C3072       C  0.04474327  0.90482468  0.52484260     0.36500
N3073       N  0.16699162  0.94670699  0.56201696    -0.38300
N3074       N  0.02556789  0.89616573  0.51627826    -0.38300
N3075       N  0.11655606  0.99865704  0.53430852    -0.37700
N3076       N  0.07394703  0.84890779  0.55199020    -0.37700
C3077       C  0.12363580  0.10482380  0.65846735    -0.04400
C3078       C  0.11462188  0.07896949  0.65483989    -0.01500
C3079       C  0.12471626  0.05854400  0.67053037     0.03500
C3080       C  0.14420229  0.06383900  0.68943688    -0.04400
C3081       C  0.15303154  0.08960011  0.69314596    -0.01500
C3082       C  0.14339542  0.10985230  0.67734338     0.03500
C3083       C  0.09457005  0.07325350  0.63553940     0.38100
C3084       C  0.17082250  0.09548795  0.71456001     0.38100
C3085       C  0.15404591  0.13597414  0.68041055     0.36500
C3086       C  0.11411992  0.03242249  0.66811742     0.36500
N3087       N  0.16255239  0.15678215  0.68271176    -0.38300
N3088       N  0.10519159  0.01174093  0.66629604    -0.38300
N3089       N  0.18442991  0.10002883  0.73213044    -0.37700
N3090       N  0.07876024  0.06792749  0.62014998    -0.37700
C3091       C  0.03857048  0.08234106  0.55850256    -0.04400
C3092       C  0.02602222  0.08920166  0.58214184    -0.01500
C3093       C  0.03687578  0.10852477  0.59873971     0.03500
C3094       C  0.06136849  0.12046535  0.59269393    -0.04400
C3095       C  0.07252294  0.11515349  0.56781395    -0.01500
C3096       C  0.06134521  0.09621628  0.55100213     0.03500
C3097       C  0.00229776  0.07566335  0.59016433     0.38100
C3098       C  0.09468645  0.13007348  0.55829327     0.38100
C3099       C  0.07310102  0.09158986  0.52551257     0.36500
C3100       C  0.02188569  0.11585287  0.62159438     0.36500
N3101       N  0.08250605  0.08793590  0.50523432    -0.38300
N3102       N  0.00813967  0.12135598  0.63871237    -0.38300
N3103       N  0.11219579  0.14139514  0.54947688    -0.37700
N3104       N  0.98337154  0.06499692  0.59662640    -0.37700
C3105       C  0.04719349  0.21409267  0.71153100    -0.04400
C3106       C  0.07110057  0.22275300  0.70039737    -0.01500
C3107       C  0.08337594  0.20836982  0.68009448     0.03500
C3108       C  0.07144344  0.18531774  0.66973309    -0.04400
C3109       C  0.04918966  0.17550248  0.68334876    -0.01500
C3110       C  0.03588028  0.19076379  0.70192834     0.03500
C3111       C  0.08424008  0.24572656  0.71078528     0.38100
C3112       C  0.04288158  0.14790134  0.68258250     0.38100
C3113       C  0.01048030  0.18178348  0.71120922     0.36500
C3114       C  0.11009202  0.21556470  0.67354436     0.36500
N3115       N  0.99024395  0.17453363  0.71845500    -0.38300
N3116       N  0.13147637  0.22167631  0.66896064    -0.38300
N3117       N  0.03885402  0.12572068  0.68366298    -0.37700
N3118       N  0.09483870  0.26398106  0.71895871    -0.37700
C3119       C  0.09822476  0.07073774  0.38841152    -0.04400
C3120       C  0.07114945  0.07663328  0.38957790    -0.01500
C3121       C  0.05452611  0.06315713  0.40708058     0.03500
C3122       C  0.06487523  0.04403006  0.42422002    -0.04400
C3123       C  0.09186943  0.03771284  0.42265859    -0.01500
C3124       C  0.10840235  0.05088621  0.40485147     0.03500
C3125       C  0.06004362  0.09649410  0.37269350     0.38100
C3126       C  0.10270776  0.01729260  0.43911021     0.38100
C3127       C  0.13627453  0.04494083  0.40464828     0.36500
C3128       C  0.02678746  0.06964606  0.40782177     0.36500
N3129       N  0.15850496  0.04028609  0.40453283    -0.38300
N3130       N  0.00464882  0.07470405  0.40825438    -0.38300
N3131       N  0.11138377  0.00101032  0.45219827    -0.37700
N3132       N  0.05056108  0.11232499  0.35962337    -0.37700
C3133       C  0.16959819  0.07829583  0.31666377    -0.04400
C3134       C  0.19054304  0.09361016  0.30661558    -0.01500
C3135       C  0.21310549  0.08181782  0.29583777     0.03500
C3136       C  0.21444006  0.05440481  0.29284366    -0.04400
C3137       C  0.19164452  0.03954163  0.29857984    -0.01500
C3138       C  0.16899931  0.05164318  0.30912123     0.03500
C3139       C  0.18875764  0.12177966  0.30611509     0.38100
C3140       C  0.19089502  0.01176813  0.29300139     0.38100
C3141       C  0.14439564  0.03749705  0.30810476     0.36500
C3142       C  0.23521064  0.09826961  0.28876232     0.36500
N3143       N  0.12484476  0.02604160  0.30687871    -0.38300
N3144       N  0.25271894  0.11149066  0.28310882    -0.38300
N3145       N  0.19024570  0.98959280  0.28878613    -0.37700
N3146       N  0.18796683  0.14423105  0.30437506    -0.37700
C3147       C  0.90535263  0.86993321  0.66208432    -0.04400
C3148       C  0.92313221  0.87345751  0.68335368    -0.01500
C3149       C  0.93843320  0.85242008  0.69287618     0.03500
C3150       C  0.93716575  0.82770880  0.68071517    -0.04400
C3151       C  0.92024823  0.82431515  0.65897693    -0.01500
C3152       C  0.90481826  0.84524188  0.64948868     0.03500
C3153       C  0.92712018  0.89912770  0.69467376     0.38100
C3154       C  0.91809693  0.79884273  0.64663221     0.38100
C3155       C  0.88897798  0.84086119  0.62632663     0.36500
C3156       C  0.95621324  0.85657661  0.71473953     0.36500
N3157       N  0.87726247  0.83658637  0.60736919    -0.38300
N3158       N  0.97029291  0.85990766  0.73224031    -0.38300
N3159       N  0.91641291  0.77853651  0.63685247    -0.37700
N3160       N  0.93039628  0.91948306  0.70392625    -0.37700
C3161       C  0.90822317  0.94270615  0.60700607    -0.04400
C3162       C  0.92716240  0.96112850  0.61593363    -0.01500
C3163       C  0.94275203  0.97532338  0.59786005     0.03500
C3164       C  0.93869272  0.97237596  0.57070806    -0.04400
C3165       C  0.91972595  0.95443997  0.56186141    -0.01500
C3166       C  0.90651046  0.93808182  0.57963204     0.03500
C3167       C  0.93232526  0.96400819  0.64370058     0.38100
C3168       C  0.91306109  0.95346424  0.53422028     0.38100
C3169       C  0.89351324  0.91530526  0.56902642     0.36500
C3170       C  0.96364034  0.99217690  0.60717576     0.36500
N3171       N  0.88446640  0.89679998  0.55964613    -0.38300
N3172       N  0.98044781  0.00543728  0.61465624    -0.38300
N3173       N  0.90725037  0.95326665  0.51231294    -0.37700
N3174       N  0.93664893  0.96643508  0.66581297    -0.37700
C3175       C  0.83670224  0.94286534  0.67963193    -0.04400
C3176       C  0.82427157  0.96623879  0.67059933    -0.01500
C3177       C  0.80214354  0.97679749  0.68353383     0.03500
C3178       C  0.79157725  0.96464270  0.70606768    -0.04400
C3179       C  0.80397548  0.94197188  0.71564645    -0.01500
C3180       C  0.82478196  0.93016866  0.70164774     0.03500
C3181       C  0.83180856  0.97834472  0.64602880     0.38100
C3182       C  0.79509355  0.93018012  0.73994060     0.38100
C3183       C  0.83070465  0.90336230  0.70852279     0.36500
C3184       C  0.78928949  0.99947715  0.67216823     0.36500
N3185       N  0.83471664  0.88191319  0.71436196    -0.38300
N3186       N  0.77917381  0.01749306  0.66296827    -0.38300
N3187       N  0.78814275  0.92074418  0.75929283    -0.37700
N3188       N  0.83734910  0.98829325  0.62647333    -0.37700
C3189       C  0.89317250  0.10596171  0.43707940    -0.04400
C3190       C  0.90933620  0.11358603  0.45852482    -0.01500
C3191       C  0.92807100  0.09628590  0.46925848     0.03500
C3192       C  0.93047143  0.07063485  0.45961942    -0.04400
C3193       C  0.91428459  0.06271490  0.43848366    -0.01500
C3194       C  0.89591947  0.08023924  0.42721706     0.03500
C3195       C  0.90749316  0.13934085  0.46992841     0.38100
C3196       C  0.91594820  0.03617543  0.42868673     0.38100
C3197       C  0.87925720  0.07110337  0.40608064     0.36500
C3198       C  0.94590125  0.10549191  0.48953258     0.36500
N3199       N  0.86633263  0.06322705  0.38917989    -0.38300
N3200       N  0.96018785  0.11290463  0.50554399    -0.38300
N3201       N  0.91727484  0.01501391  0.42089020    -0.37700
N3202       N  0.90680694  0.15923445  0.48054872    -0.37700
C3203       C  0.79536514  0.21890953  0.46621021    -0.04400
C3204       C  0.78212488  0.19729635  0.45555746    -0.01500
C3205       C  0.79642482  0.17624298  0.44477598     0.03500
C3206       C  0.82422268  0.17792243  0.44199290    -0.04400
C3207       C  0.83728991  0.19847265  0.45593205    -0.01500
C3208       C  0.82286430  0.21860840  0.46795327     0.03500
C3209       C  0.75365569  0.19637755  0.45662681     0.38100
C3210       C  0.86569588  0.20063691  0.45668274     0.38100
C3211       C  0.83650805  0.23980861  0.48117789     0.36500
C3212       C  0.78230809  0.15232742  0.43940872     0.36500
N3213       N  0.84742840  0.25656964  0.49179441    -0.38300
N3214       N  0.77035859  0.13351763  0.43550534    -0.38300
N3215       N  0.88815572  0.20398867  0.45652068    -0.37700
N3216       N  0.73096866  0.19575776  0.45758330    -0.37700
C3217       C  0.93600113  0.90098479  0.40337067    -0.04400
C3218       C  0.95276358  0.92012618  0.39267653    -0.01500
C3219       C  0.96683750  0.93715676  0.40919343     0.03500
C3220       C  0.96389727  0.93561648  0.43672538    -0.04400
C3221       C  0.94752211  0.91586348  0.44736071    -0.01500
C3222       C  0.93335563  0.89897550  0.43069299     0.03500
C3223       C  0.95430960  0.92340209  0.36449377     0.38100
C3224       C  0.94504417  0.91252849  0.47545676     0.38100
C3225       C  0.91595848  0.87965738  0.44192042     0.36500
C3226       C  0.98496219  0.95569647  0.39762754     0.36500
N3227       N  0.90214436  0.86472326  0.45176802    -0.38300
N3228       N  0.99945110  0.97041564  0.38838403    -0.38300
N3229       N  0.94328913  0.90928736  0.49779649    -0.37700
N3230       N  0.95522532  0.92636306  0.34206389    -0.37700
C3231       C  0.93380250  0.83190803  0.33084837    -0.04400
C3232       C  0.91898730  0.81310780  0.31613633    -0.01500
C3233       C  0.93085334  0.79808220  0.29626627     0.03500
C3234       C  0.95726823  0.80215016  0.28960831    -0.04400
C3235       C  0.97207845  0.82090513  0.30331860    -0.01500
C3236       C  0.96026380  0.83657293  0.32269356     0.03500
C3237       C  0.89081113  0.81025380  0.31925573     0.38100
C3238       C  0.99970615  0.82454559  0.29705213     0.38100
C3239       C  0.97519604  0.85904742  0.33141032     0.36500
C3240       C  0.91517872  0.77958134  0.28131647     0.36500
N3241       N  0.98794624  0.87665628  0.33774194    -0.38300
N3242       N  0.90269070  0.76489698  0.26939624    -0.38300
N3243       N  0.02165450  0.82749116  0.29204008    -0.37700
N3244       N  0.86838874  0.80740044  0.32153208    -0.37700
C3245       C  0.71239024  0.72207467  0.45346440    -0.04400
C3246       C  0.70500939  0.70061615  0.46893943    -0.01500
C3247       C  0.69378008  0.67830300  0.45715908     0.03500
C3248       C  0.68639047  0.67881521  0.43027948    -0.04400
C3249       C  0.69802153  0.69858476  0.41448994    -0.01500
C3250       C  0.71075734  0.72012466  0.42607405     0.03500
C3251       C  0.70996465  0.70112663  0.49693308     0.38100
C3252       C  0.69795710  0.69667182  0.38621836     0.38100
C3253       C  0.72157077  0.74063842  0.40974739     0.36500
C3254       C  0.69427682  0.65416496  0.47180193     0.36500
N3255       N  0.73032904  0.75681960  0.39663332    -0.38300
N3256       N  0.69519348  0.63499950  0.48372264    -0.38300
N3257       N  0.69918789  0.69552841  0.36365798    -0.37700
N3258       N  0.71394512  0.70164558  0.51923737    -0.37700
C3259       C  0.82481058  0.68172544  0.56818020    -0.04400
C3260       C  0.81961896  0.70524539  0.58197666    -0.01500
C3261       C  0.80890031  0.72687413  0.56901663     0.03500
C3262       C  0.79897512  0.72433547  0.54342948    -0.04400
C3263       C  0.80007264  0.69980500  0.53089897    -0.01500
C3264       C  0.81224907  0.67838286  0.54348087     0.03500
C3265       C  0.82327759  0.70721232  0.61003454     0.38100
C3266       C  0.78805077  0.69636627  0.50533479     0.38100
C3267       C  0.80858419  0.65259317  0.53241720     0.36500
C3268       C  0.80960402  0.75218640  0.58175581     0.36500
N3269       N  0.80536244  0.63205663  0.52354320    -0.38300
N3270       N  0.81079768  0.77230636  0.59192738    -0.38300
N3271       N  0.77856567  0.69365777  0.48490500    -0.37700
N3272       N  0.82527766  0.70987439  0.63241407    -0.37700
C3273       C  0.67458218  0.81654474  0.56908006    -0.04400
C3274       C  0.64780753  0.81015647  0.56484329    -0.01500
C3275       C  0.62805201  0.82065048  0.58121009     0.03500
C3276       C  0.63470180  0.83738107  0.60228256    -0.04400
C3277       C  0.66139028  0.84104298  0.60839563    -0.01500
C3278       C  0.68107270  0.83241770  0.59099351     0.03500
C3279       C  0.64039756  0.79222524  0.54411002     0.38100
C3280       C  0.66878446  0.85083947  0.63400058     0.38100
C3281       C  0.70772287  0.84142895  0.59514001     0.36500
C3282       C  0.60082037  0.81337013  0.57692597     0.36500
N3283       N  0.72878216  0.84924884  0.59837230    -0.38300
N3284       N  0.57910475  0.80758264  0.57360207    -0.38300
N3285       N  0.67487549  0.85794011  0.65465194    -0.37700
N3286       N  0.63440160  0.77788474  0.52763658    -0.37700
C3287       C  0.82259566  0.82966337  0.43555166    -0.04400
C3288       C  0.81745370  0.84943782  0.41694236    -0.01500
C3289       C  0.83726229  0.85770178  0.39948107     0.03500
C3290       C  0.86251175  0.84627536  0.40030604    -0.04400
C3291       C  0.86750337  0.82612204  0.41869944    -0.01500
C3292       C  0.84774673  0.81807080  0.43630611     0.03500
C3293       C  0.79141701  0.86079825  0.41507618     0.38100
C3294       C  0.89329850  0.81416876  0.42037931     0.38100
C3295       C  0.85376376  0.79858293  0.45601799     0.36500
C3296       C  0.83103055  0.87724534  0.37994262     0.36500
N3297       N  0.85861852  0.78312107  0.47178659    -0.38300
N3298       N  0.82547582  0.89283181  0.36454189    -0.38300
N3299       N  0.91383330  0.80459990  0.42173517    -0.37700
N3300       N  0.77070552  0.86993767  0.41349583    -0.37700
C3301       C  0.79887037  0.86228395  0.56764838    -0.04400
C3302       C  0.81021350  0.88676342  0.56126238    -0.01500
C3303       C  0.82706428  0.89947319  0.57927278     0.03500
C3304       C  0.83512920  0.88675086  0.60246054    -0.04400
C3305       C  0.82216083  0.86370095  0.60995496    -0.01500
C3306       C  0.80365400  0.85196770  0.59314008     0.03500
C3307       C  0.80430576  0.89948665  0.53661407     0.38100
C3308       C  0.82643088  0.85305940  0.63600932     0.38100
C3309       C  0.78817113  0.83051368  0.60338749     0.36500
C3310       C  0.83436177  0.92649254  0.57492058     0.36500
N3311       N  0.77568805  0.81374624  0.61201331    -0.38300
N3312       N  0.83995117  0.94810219  0.57151673    -0.38300
N3313       N  0.82979649  0.84469388  0.65677624    -0.37700
N3314       N  0.79962577  0.90985449  0.51704108    -0.37700
C3315       C  0.69176352  0.85757824  0.44213818    -0.04400
C3316       C  0.67097363  0.87414894  0.44945134    -0.01500
C3317       C  0.65568596  0.88665822  0.43006887     0.03500
C3318       C  0.66105596  0.88235723  0.40326727    -0.04400
C3319       C  0.68054814  0.86392549  0.39616115    -0.01500
C3320       C  0.69592398  0.85177120  0.41551276     0.03500
C3321       C  0.66508354  0.87788304  0.47697227     0.38100
C3322       C  0.68452354  0.85711375  0.36883647     0.38100
C3323       C  0.71621019  0.83335532  0.40799123     0.36500
C3324       C  0.63492823  0.90422871  0.43798930     0.36500
N3325       N  0.73238914  0.81871355  0.40195016    -0.38300
N3326       N  0.61833643  0.91789495  0.44508754    -0.38300
N3327       N  0.68759949  0.85176181  0.34704597    -0.37700
N3328       N  0.66034300  0.88060323  0.49894794    -0.37700
C3329       C  0.67257672  0.94665880  0.33052161    -0.04400
C3330       C  0.69551710  0.95637397  0.34327538    -0.01500
C3331       C  0.71737529  0.96445583  0.32864689     0.03500
C3332       C  0.71547643  0.96736758  0.30117170    -0.04400
C3333       C  0.69096263  0.96273064  0.28894315    -0.01500
C3334       C  0.66959357  0.95264269  0.30352693     0.03500
C3335       C  0.69719262  0.95852345  0.37160296     0.38100
C3336       C  0.68720006  0.96953464  0.26161043     0.38100
C3337       C  0.64403844  0.95157003  0.29115419     0.36500
C3338       C  0.74212684  0.96882646  0.34226389     0.36500
N3339       N  0.62389343  0.95133474  0.28067074    -0.38300
N3340       N  0.76177765  0.97225413  0.35316225    -0.38300
N3341       N  0.68410804  0.97510025  0.23987263    -0.37700
N3342       N  0.69960077  0.95989207  0.39408591    -0.37700
C3343       C  0.67024976  0.07008135  0.17335602    -0.04400
C3344       C  0.66989844  0.07014646  0.20125664    -0.01500
C3345       C  0.69128106  0.05985931  0.21557107     0.03500
C3346       C  0.71201837  0.04723118  0.20255270    -0.04400
C3347       C  0.71032773  0.04319814  0.17531342    -0.01500
C3348       C  0.68921684  0.05378810  0.16094158     0.03500
C3349       C  0.64672140  0.07733826  0.21587835     0.38100
C3350       C  0.73110018  0.02934015  0.16170400     0.38100
C3351       C  0.68725634  0.04772861  0.13322304     0.36500
C3352       C  0.69152997  0.06149883  0.24397027     0.36500
N3353       N  0.68573018  0.04262100  0.11120488    -0.38300
N3354       N  0.69179100  0.06281110  0.26658383    -0.38300
N3355       N  0.74769634  0.01840975  0.15082302    -0.37700
N3356       N  0.62870590  0.08264848  0.22856263    -0.37700
C3357       C  0.83159046  0.11039055  0.36669741    -0.04400
C3358       C  0.83979618  0.11311657  0.34036189    -0.01500
C3359       C  0.82789479  0.09818553  0.32025434     0.03500
C3360       C  0.80796022  0.07997312  0.32619443    -0.04400
C3361       C  0.79977057  0.07715420  0.35244344    -0.01500
C3362       C  0.81166742  0.09200121  0.37254371     0.03500
C3363       C  0.86073748  0.13084112  0.33341029     0.38100
C3364       C  0.77873129  0.05914894  0.35879235     0.38100
C3365       C  0.80446112  0.08705530  0.39954468     0.36500
C3366       C  0.83700234  0.10089719  0.29345901     0.36500
N3367       N  0.79889713  0.08277794  0.42106042    -0.38300
N3368       N  0.84422505  0.10308938  0.27211047    -0.38300
N3369       N  0.76189748  0.04484240  0.36377845    -0.37700
N3370       N  0.87760008  0.14422406  0.32644363    -0.37700
C3371       C  0.81753127  0.94658185  0.17854747    -0.04400
C3372       C  0.80753504  0.92098126  0.17701917    -0.01500
C3373       C  0.81585642  0.90383696  0.15697059     0.03500
C3374       C  0.83472236  0.91183744  0.13805288    -0.04400
C3375       C  0.84386764  0.93794452  0.13909103    -0.01500
C3376       C  0.83540806  0.95509006  0.15914684     0.03500
C3377       C  0.78907414  0.91180579  0.19661265     0.38100
C3378       C  0.86086879  0.94804490  0.11877035     0.38100
C3379       C  0.84437321  0.98199262  0.15908148     0.36500
C3380       C  0.80450616  0.87796793  0.15648290     0.36500
N3381       N  0.85145544  0.00344329  0.15899764    -0.38300
N3382       N  0.79403089  0.85797459  0.15696062    -0.38300
N3383       N  0.87434557  0.95685749  0.10287248    -0.37700
N3384       N  0.77431610  0.90444290  0.21213018    -0.37700
C3385       C  0.85319154  0.95232100  0.30698178    -0.04400
C3386       C  0.86546034  0.95761462  0.33114517    -0.01500
C3387       C  0.87757905  0.93729530  0.34552209     0.03500
C3388       C  0.87695432  0.91124769  0.33600565    -0.04400
C3389       C  0.86271924  0.90601636  0.31257181    -0.01500
C3390       C  0.85157404  0.92647813  0.29792238     0.03500
C3391       C  0.86537068  0.98407539  0.34128405     0.38100
C3392       C  0.85802738  0.87944788  0.30394524     0.38100
C3393       C  0.83754337  0.92082000  0.27376789     0.36500
C3394       C  0.89030476  0.94374030  0.37004956     0.36500
N3395       N  0.82634695  0.91633091  0.25455015    -0.38300
N3396       N  0.89976996  0.94981749  0.38974349    -0.38300
N3397       N  0.85401650  0.85846838  0.29661779    -0.37700
N3398       N  0.86515974  0.00515951  0.34939160    -0.37700
C3399       C  0.87298325  0.11257940  0.16500699    -0.04400
C3400       C  0.88689527  0.09091726  0.17497369    -0.01500
C3401       C  0.87431734  0.07261211  0.19134971     0.03500
C3402       C  0.84837459  0.07727867  0.20044113    -0.04400
C3403       C  0.83569843  0.10093789  0.19259486    -0.01500
C3404       C  0.84774075  0.11796277  0.17461338     0.03500
C3405       C  0.91474411  0.08820757  0.16950909     0.38100
C3406       C  0.81076809  0.10907239  0.20374393     0.38100
C3407       C  0.83476908  0.14218376  0.16746978     0.36500
C3408       C  0.88859645  0.04927188  0.19875690     0.36500
N3409       N  0.82414377  0.16134258  0.16190247    -0.38300
N3410       N  0.90013403  0.03067759  0.20447205    -0.38300
N3411       N  0.79099911  0.11579080  0.21261762    -0.37700
N3412       N  0.93697424  0.08620103  0.16533916    -0.37700
C3413       C  0.04097866  0.29946637  0.21175433    -0.04400
C3414       C  0.02598516  0.30768263  0.19013273    -0.01500
C3415       C  0.03790027  0.32174923  0.16951420     0.03500
C3416       C  0.06457517  0.32983611  0.17158587    -0.04400
C3417       C  0.07994748  0.31877700  0.19241498    -0.01500
C3418       C  0.06810722  0.30377107  0.21215381     0.03500
C3419       C  0.99829665  0.30103371  0.18889585     0.38100
C3420       C  0.10789868  0.32384043  0.19508423     0.38100
C3421       C  0.08373092  0.29375259  0.23379980     0.36500
C3422       C  0.02300153  0.32517336  0.14564902     0.36500
N3423       N  0.09609055  0.28573591  0.25103762    -0.38300
N3424       N  0.01044499  0.32714707  0.12685294    -0.38300
N3425       N  0.12988881  0.32848292  0.19842652    -0.37700
N3426       N  0.97624008  0.29568927  0.18794691    -0.37700
C3427       C  0.95176252  0.21798879  0.20821491    -0.04400
C3428       C  0.92422840  0.21548684  0.20603109    -0.01500
C3429       C  0.91311623  0.20330834  0.18396381     0.03500
C3430       C  0.92934308  0.19092074  0.16490965    -0.04400
C3431       C  0.95639580  0.19755150  0.16490321    -0.01500
C3432       C  0.96753411  0.21077233  0.18658943     0.03500
C3433       C  0.90699247  0.22415981  0.22695006     0.38100
C3434       C  0.97252230  0.19367266  0.14195817     0.38100
C3435       C  0.99515985  0.21782064  0.18610776     0.36500
C3436       C  0.88468241  0.20320883  0.18143117     0.36500
N3437       N  0.01713563  0.22353821  0.18564673    -0.38300
N3438       N  0.86204853  0.20360360  0.17955120    -0.38300
N3439       N  0.98603408  0.19117457  0.12394920    -0.37700
N3440       N  0.89315797  0.23099844  0.24353715    -0.37700
C3441       C  0.09662299  0.14493960  0.33330794    -0.04400
C3442       C  0.09516248  0.16931488  0.34638621    -0.01500
C3443       C  0.07888583  0.18947076  0.33669633     0.03500
C3444       C  0.06230327  0.18524256  0.31482146    -0.04400
C3445       C  0.06285994  0.16062203  0.30231816    -0.01500
C3446       C  0.07989589  0.14070489  0.31138976     0.03500
C3447       C  0.10970784  0.17413720  0.37029199     0.38100
C3448       C  0.04506963  0.15523699  0.28075601     0.38100
C3449       C  0.07871678  0.11516222  0.29915095     0.36500
C3450       C  0.07990061  0.21503810  0.34899863     0.36500
N3451       N  0.07774298  0.09477373  0.28945269    -0.38300
N3452       N  0.08077965  0.23541517  0.35873231    -0.38300
N3453       N  0.03087024  0.15085608  0.26358771    -0.37700
N3454       N  0.12021616  0.17886774  0.38983144    -0.37700
C3455       C  0.92862609  0.33169383  0.31204954    -0.04400
C3456       C  0.90199065  0.33314469  0.30449549    -0.01500
C3457       C  0.88509502  0.35182977  0.31591149     0.03500
C3458       C  0.89462174  0.37002820  0.33470009    -0.04400
C3459       C  0.92136833  0.36845734  0.34224439    -0.01500
C3460       C  0.93802231  0.34916263  0.33143653     0.03500
C3461       C  0.89186419  0.31571807  0.28442420     0.38100
C3462       C  0.93255736  0.38709780  0.36045342     0.38100
C3463       C  0.96471622  0.34679202  0.34121950     0.36500
C3464       C  0.85774142  0.35167441  0.30813245     0.36500
N3465       N  0.98590146  0.34495430  0.34923467    -0.38300
N3466       N  0.83621767  0.35084666  0.30096014    -0.38300
N3467       N  0.94249447  0.40142152  0.37490966    -0.37700
N3468       N  0.88372187  0.30184564  0.26846747    -0.37700
C3469       C  0.89566824  0.17358991  0.37506546    -0.04400
C3470       C  0.92284688  0.16822710  0.37650914    -0.01500
C3471       C  0.94090339  0.18392762  0.36266728     0.03500
C3472       C  0.93189869  0.20530440  0.34771489    -0.04400
C3473       C  0.90469148  0.21027223  0.34580540    -0.01500
C3474       C  0.88668709  0.19404957  0.35868041     0.03500
C3475       C  0.93250082  0.14699133  0.39253574     0.38100
C3476       C  0.89509400  0.23280732  0.33142489     0.38100
C3477       C  0.85874857  0.19804476  0.35434925     0.36500
C3478       C  0.96869844  0.17776889  0.36341698     0.36500
N3479       N  0.83651546  0.20118558  0.35086591    -0.38300
N3480       N  0.99086182  0.17282564  0.36393884    -0.38300
N3481       N  0.88745748  0.25082298  0.32010213    -0.37700
N3482       N  0.94074463  0.13004681  0.40502290    -0.37700
C3483       C  0.04989634  0.31744363  0.35182305    -0.04400
C3484       C  0.05705716  0.31062907  0.37774987    -0.01500
C3485       C  0.07598157  0.32541404  0.39150497     0.03500
C3486       C  0.08994838  0.34592246  0.37900923    -0.04400
C3487       C  0.08058657  0.35469522  0.35443974    -0.01500
C3488       C  0.06020358  0.34110448  0.34138803     0.03500
C3489       C  0.04534934  0.28829816  0.39074030     0.38100
C3490       C  0.09146838  0.37766180  0.34201493     0.38100
C3491       C  0.04965900  0.35225436  0.31741107     0.36500
C3492       C  0.08044561  0.31950596  0.41894022     0.36500
N3493       N  0.04124496  0.36134340  0.29843433    -0.38300
N3494       N  0.08374762  0.31410090  0.44067198    -0.38300
N3495       N  0.09917629  0.39615812  0.33157620    -0.37700
N3496       N  0.03617377  0.27053316  0.40127300    -0.37700
C3497       C  0.78528500  0.55815865  0.20186918    -0.04400
C3498       C  0.80749375  0.56845333  0.21515701    -0.01500
C3499       C  0.83034643  0.57555611  0.20118704     0.03500
C3500       C  0.83012595  0.57680249  0.17342456    -0.04400
C3501       C  0.80875348  0.56465892  0.16030138    -0.01500
C3502       C  0.78618860  0.55677229  0.17407164     0.03500
C3503       C  0.80682954  0.57341155  0.24308538     0.38100
C3504       C  0.80963909  0.55916325  0.13246123     0.38100
C3505       C  0.76343913  0.54863389  0.15879389     0.36500
C3506       C  0.85479488  0.57797528  0.21560701     0.36500
N3507       N  0.74544082  0.54230276  0.14645091    -0.38300
N3508       N  0.87427835  0.57958436  0.22720433    -0.38300
N3509       N  0.80885239  0.55444638  0.11034413    -0.37700
N3510       N  0.80627863  0.57833512  0.26518966    -0.37700
C3511       C  0.78608952  0.46610198  0.29397694    -0.04400
C3512       C  0.78281266  0.43988358  0.30155539    -0.01500
C3513       C  0.80277008  0.42684155  0.31542165     0.03500
C3514       C  0.82577379  0.44041652  0.32410722    -0.04400
C3515       C  0.83005020  0.46582201  0.31381554    -0.01500
C3516       C  0.81001167  0.47876824  0.29966768     0.03500
C3517       C  0.75820357  0.42638494  0.29630122     0.38100
C3518       C  0.85566387  0.47799234  0.31471264     0.38100
C3519       C  0.81460314  0.50495237  0.29010096     0.36500
C3520       C  0.79869355  0.39933758  0.32094749     0.36500
N3521       N  0.81868886  0.52582600  0.28264861    -0.38300
N3522       N  0.79435323  0.37774051  0.32585344    -0.38300
N3523       N  0.87576458  0.48849133  0.31461742    -0.37700
N3524       N  0.73865432  0.41559349  0.29221839    -0.37700
C3525       C  0.66500623  0.41247108  0.13190710    -0.04400
C3526       C  0.67890550  0.40179308  0.15328426    -0.01500
C3527       C  0.69215644  0.41801755  0.17134358     0.03500
C3528       C  0.68944805  0.44549965  0.17004773    -0.04400
C3529       C  0.67360834  0.45613109  0.14964075    -0.01500
C3530       C  0.66110436  0.43965660  0.13116339     0.03500
C3531       C  0.67652926  0.37431112  0.15910522     0.38100
C3532       C  0.66967920  0.48408591  0.14735740     0.38100
C3533       C  0.64240755  0.45083578  0.11300101     0.36500
C3534       C  0.70916248  0.40602550  0.19073563     0.36500
N3535       N  0.62684930  0.46075505  0.09984399    -0.38300
N3536       N  0.72285446  0.39632581  0.20598922    -0.38300
N3537       N  0.66672784  0.50635744  0.14517631    -0.37700
N3538       N  0.67407853  0.35281428  0.16543286    -0.37700
C3539       C  0.66518521  0.60886461  0.36254627    -0.04400
C3540       C  0.68758197  0.59255591  0.36575124    -0.01500
C3541       C  0.69650034  0.57647001  0.34506671     0.03500
C3542       C  0.68294956  0.57580562  0.32093059    -0.04400
C3543       C  0.66019031  0.59138876  0.31788335    -0.01500
C3544       C  0.65110067  0.60736209  0.33859807     0.03500
C3545       C  0.70058410  0.59074062  0.39100689     0.38100
C3546       C  0.64630407  0.59162333  0.29299600     0.38100
C3547       C  0.62687482  0.62166182  0.33482165     0.36500
C3548       C  0.71911047  0.55971693  0.34914240     0.36500
N3549       N  0.60711004  0.63215464  0.33108208    -0.38300
N3550       N  0.73714804  0.54637447  0.35237861    -0.38300
N3551       N  0.63522342  0.59185343  0.27319260    -0.37700
N3552       N  0.71097255  0.58924055  0.41111913    -0.37700
C3553       C  0.64549286  0.56667640  0.19417324    -0.04400
C3554       C  0.65351907  0.59292183  0.19597082    -0.01500
C3555       C  0.64085430  0.61206651  0.18098510     0.03500
C3556       C  0.62032618  0.60504130  0.16365393    -0.04400
C3557       C  0.61269584  0.57865042  0.16140147    -0.01500
C3558       C  0.62506859  0.55949461  0.17695957     0.03500
C3559       C  0.67467695  0.60029750  0.21362279     0.38100
C3560       C  0.59180311  0.57117548  0.14363050     0.38100
C3561       C  0.61691729  0.53244360  0.17521277     0.36500
C3562       C  0.64930889  0.63906364  0.18308159     0.36500
N3563       N  0.61035536  0.51087084  0.17387908    -0.38300
N3564       N  0.65598356  0.66058273  0.18466164    -0.38300
N3565       N  0.57528387  0.56467701  0.12948047    -0.37700
N3566       N  0.69154320  0.60608636  0.22768994    -0.37700
C3567       C  0.62997032  0.40604165  0.33316187    -0.04400
C3568       C  0.64419559  0.39815437  0.31069633    -0.01500
C3569       C  0.65509711  0.41680074  0.29377579     0.03500
C3570       C  0.65278804  0.44368034  0.29945186    -0.04400
C3571       C  0.64008994  0.45161756  0.32268221    -0.01500
C3572       C  0.62958831  0.43280124  0.33997829     0.03500
C3573       C  0.64838027  0.37062084  0.30530875     0.38100
C3574       C  0.63807171  0.47915596  0.32899062     0.38100
C3575       C  0.61968745  0.44123215  0.36512428     0.36500
C3576       C  0.66782793  0.40816317  0.26986658     0.36500
N3577       N  0.61273453  0.44867408  0.38534480    -0.38300
N3578       N  0.67791161  0.40123255  0.25081862    -0.38300
N3579       N  0.63624721  0.50113012  0.33386634    -0.37700
N3580       N  0.65170556  0.34869665  0.30105906    -0.37700
C3581       C  0.29496395  0.29718419  0.53578438    -0.04400
C3582       C  0.28291603  0.31531241  0.55298654    -0.01500
C3583       C  0.29629120  0.33831757  0.56056795     0.03500
C3584       C  0.32371639  0.34081073  0.55612765    -0.04400
C3585       C  0.33477582  0.32430846  0.53664416    -0.01500
C3586       C  0.31998772  0.30381627  0.52551957     0.03500
C3587       C  0.25693302  0.31060457  0.56355728     0.38100
C3588       C  0.36175374  0.32777329  0.52814114     0.38100
C3589       C  0.33063928  0.29022146  0.50296766     0.36500
C3590       C  0.28064016  0.36022537  0.56924183     0.36500
N3591       N  0.33906924  0.27974082  0.48476786    -0.38300
N3592       N  0.26761739  0.37756706  0.57570868    -0.38300
N3593       N  0.38320070  0.33038049  0.52118993    -0.37700
N3594       N  0.23630718  0.30697056  0.57228922    -0.37700
C3595       C  0.20321977  0.29175367  0.45303120    -0.04400
C3596       C  0.20018050  0.31561699  0.46644437    -0.01500
C3597       C  0.18672581  0.33662464  0.45457556     0.03500
C3598       C  0.17465935  0.33339529  0.42961998    -0.04400
C3599       C  0.18141978  0.31067040  0.41497321    -0.01500
C3600       C  0.19411152  0.28954244  0.42710011     0.03500
C3601       C  0.21186425  0.31899619  0.49216453     0.38100
C3602       C  0.17610343  0.30893476  0.38705080     0.38100
C3603       C  0.19643834  0.26498457  0.41313994     0.36500
C3604       C  0.18876435  0.36204552  0.46682192     0.36500
N3605       N  0.19788332  0.24541240  0.40196775    -0.38300
N3606       N  0.19077877  0.38219529  0.47687535    -0.38300
N3607       N  0.17193041  0.30737079  0.36482803    -0.37700
N3608       N  0.22114547  0.32183475  0.51265292    -0.37700
C3609       C  0.36764630  0.17499823  0.39800565    -0.04400
C3610       C  0.37437582  0.19095588  0.41956313    -0.01500
C3611       C  0.35467111  0.20094570  0.43624211     0.03500
C3612       C  0.32780857  0.19538417  0.43134793    -0.04400
C3613       C  0.32128643  0.17950810  0.40950329    -0.01500
C3614       C  0.34095730  0.17084249  0.39212959     0.03500
C3615       C  0.40173409  0.19724166  0.42453713     0.38100
C3616       C  0.29470500  0.17005055  0.40588507     0.38100
C3617       C  0.33351509  0.15981841  0.36704186     0.36500
C3618       C  0.36240663  0.21666156  0.45857971     0.36500
N3619       N  0.32734980  0.15160660  0.34683055    -0.38300
N3620       N  0.36889993  0.22884864  0.47653691    -0.38300
N3621       N  0.27375013  0.16174682  0.40324023    -0.37700
N3622       N  0.42354769  0.20229935  0.42836949    -0.37700
C3623       C  0.17898556  0.18886964  0.56197196    -0.04400
C3624       C  0.15403845  0.20085650  0.56174017    -0.01500
C3625       C  0.13370327  0.19135887  0.57794662     0.03500
C3626       C  0.13814568  0.16996350  0.59502796    -0.04400
C3627       C  0.16289028  0.15746179  0.59454122    -0.01500
C3628       C  0.18316381  0.16691117  0.57825195     0.03500
C3629       C  0.14881591  0.22218067  0.54381791     0.38100
C3630       C  0.16795500  0.13483260  0.61073023     0.38100
C3631       C  0.20864215  0.15416651  0.57868630     0.36500
C3632       C  0.10764627  0.20259552  0.57566326     0.36500
N3633       N  0.22889493  0.14393924  0.57897633    -0.38300
N3634       N  0.08684332  0.21146985  0.57375925    -0.38300
N3635       N  0.17277534  0.11648170  0.62297888    -0.37700
N3636       N  0.14466182  0.23913581  0.52946252    -0.37700
C3637       C  0.30476906  0.15616078  0.55716742    -0.04400
C3638       C  0.30409412  0.16588799  0.58300678    -0.01500
C3639       C  0.32029243  0.15487192  0.60233649     0.03500
C3640       C  0.33622157  0.13320694  0.59638224    -0.04400
C3641       C  0.33901792  0.12541710  0.57001844    -0.01500
C3642       C  0.32274206  0.13637550  0.55053245     0.03500
C3643       C  0.28658662  0.18720733  0.58976834     0.38100
C3644       C  0.36028395  0.10848592  0.56222935     0.38100
C3645       C  0.32515488  0.12801758  0.52349839     0.36500
C3646       C  0.32267089  0.16755188  0.62757758     0.36500
N3647       N  0.32705686  0.12135987  0.50193572    -0.38300
N3648       N  0.32506323  0.17864714  0.64716209    -0.38300
N3649       N  0.37774939  0.09622816  0.55466327    -0.37700
N3650       N  0.27258627  0.20415518  0.59512891    -0.37700
C3651       C  0.16214634  0.13502603  0.39601003    -0.04400
C3652       C  0.17833500  0.15565732  0.38773497    -0.01500
C3653       C  0.19709656  0.16642526  0.40473605     0.03500
C3654       C  0.19788393  0.15885990  0.43145216    -0.04400
C3655       C  0.17935310  0.14030701  0.44051343    -0.01500
C3656       C  0.16178780  0.12819336  0.42273254     0.03500
C3657       C  0.17404585  0.16753474  0.36233928     0.38100
C3658       C  0.17771874  0.13410524  0.46816525     0.38100
C3659       C  0.14281360  0.10950743  0.43228825     0.36500
C3660       C  0.21605495  0.18464871  0.39398814     0.36500
N3661       N  0.12754258  0.09518278  0.44083843    -0.38300
N3662       N  0.23108356  0.19903973  0.38508200    -0.38300
N3663       N  0.17631035  0.12920428  0.49022598    -0.37700
N3664       N  0.16993263  0.17832803  0.34289316    -0.37700
C3665       C  0.43749602  0.18467828  0.32798875    -0.04400
C3666       C  0.42131319  0.20103566  0.31184768    -0.01500
C3667       C  0.43209060  0.21605954  0.29133626     0.03500
C3668       C  0.45872632  0.21358160  0.28464433    -0.04400
C3669       C  0.47490246  0.19698434  0.29960261    -0.01500
C3670       C  0.46457168  0.18247672  0.32079305     0.03500
C3671       C  0.39288871  0.20103073  0.31438471     0.38100
C3672       C  0.50254699  0.19445532  0.29290737     0.38100
C3673       C  0.48226642  0.16396588  0.33285131     0.36500
C3674       C  0.41516581  0.23301882  0.27600786     0.36500
N3675       N  0.49766300  0.14981808  0.34158236    -0.38300
N3676       N  0.40166780  0.24660215  0.26391309    -0.38300
N3677       N  0.52448260  0.19213365  0.28753974    -0.37700
N3678       N  0.37023246  0.20104838  0.31609768    -0.37700
C3679       C  0.54174422  0.30636696  0.28544480    -0.04400
C3680       C  0.53941056  0.33373036  0.28615889    -0.01500
C3681       C  0.54843489  0.34782222  0.30807615     0.03500
C3682       C  0.56216793  0.33501680  0.32867650    -0.04400
C3683       C  0.56017575  0.30736887  0.32970117    -0.01500
C3684       C  0.55122149  0.29317116  0.30769320     0.03500
C3685       C  0.52868386  0.34766062  0.26378307     0.38100
C3686       C  0.56322360  0.29347055  0.35415539     0.38100
C3687       C  0.55079609  0.26489370  0.30841945     0.36500
C3688       C  0.54282099  0.37547747  0.30919897     0.36500
N3689       N  0.55056879  0.24234869  0.30914313    -0.38300
N3690       N  0.53739706  0.39735756  0.30903346    -0.38300
N3691       N  0.56513479  0.28166528  0.37334529    -0.37700
N3692       N  0.52023743  0.35875696  0.24593769    -0.37700
C3693       C  0.60231469  0.14469698  0.16213355    -0.04400
C3694       C  0.60033978  0.16977584  0.15055597    -0.01500
C3695       C  0.58375711  0.18903747  0.16163628     0.03500
C3696       C  0.57014944  0.18420170  0.18522642    -0.04400
C3697       C  0.57101523  0.15893828  0.19603817    -0.01500
C3698       C  0.58602566  0.13911310  0.18397393     0.03500
C3699       C  0.61446238  0.17604055  0.12681435     0.38100
C3700       C  0.55620051  0.15319379  0.21956634     0.38100
C3701       C  0.58269249  0.11243473  0.19274320     0.36500
C3702       C  0.57878717  0.21300501  0.14738151     0.36500
N3703       N  0.57936627  0.09117141  0.19951656    -0.38300
N3704       N  0.57432754  0.23171994  0.13554386    -0.38300
N3705       N  0.54440468  0.14863083  0.23834270    -0.37700
N3706       N  0.62494399  0.18164438  0.10755103    -0.37700
C3707       C  0.43522408  0.33036849  0.18049499    -0.04400
C3708       C  0.44113290  0.34744116  0.15947980    -0.01500
C3709       C  0.42464201  0.36884455  0.15359184     0.03500
C3710       C  0.40008939  0.37192293  0.16622344    -0.04400
C3711       C  0.39365261  0.35400393  0.18656715    -0.01500
C3712       C  0.41125907  0.33386343  0.19389019     0.03500
C3713       C  0.46383544  0.34285497  0.14299951     0.38100
C3714       C  0.36891449  0.35552744  0.20037857     0.38100
C3715       C  0.40375434  0.31567291  0.21433839     0.36500
C3716       C  0.43429676  0.38843046  0.13556351     0.36500
N3717       N  0.39762904  0.30120567  0.23058553    -0.38300
N3718       N  0.44296130  0.40361958  0.12125720    -0.38300
N3719       N  0.34982763  0.35603326  0.21257743    -0.37700
N3720       N  0.48129859  0.33895496  0.12908976    -0.37700
C3721       C  0.60592484  0.34488370  0.12463925    -0.04400
C3722       C  0.61345555  0.32071486  0.13642833    -0.01500
C3723       C  0.59496289  0.30504492  0.14952936     0.03500
C3724       C  0.56880589  0.31332667  0.15214299    -0.04400
C3725       C  0.56225259  0.33893221  0.14477124    -0.01500
C3726       C  0.58018254  0.35437285  0.13030032     0.03500
C3727       C  0.64040386  0.31160351  0.13649456     0.38100
C3728       C  0.53852627  0.35060194  0.15516827     0.38100
C3729       C  0.57135156  0.37986638  0.12192064     0.36500
C3730       C  0.60342283  0.28079629  0.16167009     0.36500
N3731       N  0.56342692  0.40015552  0.11587922    -0.38300
N3732       N  0.61059446  0.26190131  0.17177618    -0.38300
N3733       N  0.52039021  0.36051313  0.16445574    -0.37700
N3734       N  0.66137285  0.30297029  0.13700732    -0.37700
C3735       C  0.40424959  0.17285955  0.12238483    -0.04400
C3736       C  0.39919607  0.18661314  0.14578288    -0.01500
C3737       C  0.41873663  0.20239225  0.15717928     0.03500
C3738       C  0.44378199  0.20445116  0.14549221    -0.04400
C3739       C  0.44920626  0.19018867  0.12253571    -0.01500
C3740       C  0.42958690  0.17418249  0.11117469     0.03500
C3741       C  0.37432334  0.18341612  0.15913222     0.38100
C3742       C  0.47518170  0.19144089  0.11103108     0.38100
C3743       C  0.43597860  0.15871077  0.08839082     0.36500
C3744       C  0.41288350  0.21683795  0.18095258     0.36500
N3745       N  0.44234549  0.14638721  0.07053953    -0.38300
N3746       N  0.40827562  0.22831731  0.19990892    -0.38300
N3747       N  0.49590144  0.19247411  0.10184584    -0.37700
N3748       N  0.35507405  0.18035822  0.17069800    -0.37700
C3749       C  0.28638595  0.55068038  0.29897670    -0.04400
C3750       C  0.29424816  0.54367816  0.32442072    -0.01500
C3751       C  0.31692815  0.55473069  0.33592402     0.03500
C3752       C  0.33252010  0.57375820  0.32247270    -0.04400
C3753       C  0.32448855  0.58009353  0.29622495    -0.01500
C3754       C  0.30177472  0.56861885  0.28487835     0.03500
C3755       C  0.27802773  0.52600487  0.33968408     0.38100
C3756       C  0.33816517  0.59868993  0.27992988     0.38100
C3757       C  0.29411444  0.57552549  0.25830454     0.36500
C3758       C  0.32322088  0.54641152  0.36231294     0.36500
N3759       N  0.28798607  0.58124814  0.23725171    -0.38300
N3760       N  0.32764011  0.53863809  0.38309523    -0.38300
N3761       N  0.34808493  0.61307439  0.26555358    -0.37700
N3762       N  0.26518009  0.51200698  0.35194722    -0.37700
C3763       C  0.32853442  0.43942756  0.18234119    -0.04400
C3764       C  0.30814143  0.42350933  0.19324983    -0.01500
C3765       C  0.28738678  0.43476405  0.20749191     0.03500
C3766       C  0.28628326  0.46187956  0.21090441    -0.04400
C3767       C  0.30775491  0.47735549  0.20329014    -0.01500
C3768       C  0.32941852  0.46601202  0.19028728     0.03500
C3769       C  0.30703086  0.39556001  0.18866480     0.38100
C3770       C  0.30794270  0.50491140  0.20979338     0.38100
C3771       C  0.35318051  0.48128650  0.18817393     0.36500
C3772       C  0.26652498  0.41842849  0.21785602     0.36500
N3773       N  0.37187468  0.49407205  0.18723983    -0.38300
N3774       N  0.25002120  0.40537007  0.22621489    -0.38300
N3775       N  0.30813163  0.52686285  0.21503980    -0.37700
N3776       N  0.30499621  0.37348075  0.18440076    -0.37700
C3777       C  0.18597670  0.57590809  0.18108145    -0.04400
C3778       C  0.19424418  0.60210881  0.17937873    -0.01500
C3779       C  0.18243725  0.61923878  0.16113627     0.03500
C3780       C  0.16348566  0.61007989  0.14285935    -0.04400
C3781       C  0.15409851  0.58420906  0.14570180    -0.01500
C3782       C  0.16530433  0.56730436  0.16457969     0.03500
C3783       C  0.21557344  0.61136622  0.19582359     0.38100
C3784       C  0.13222573  0.57474787  0.13023647     0.38100
C3785       C  0.15475373  0.54114031  0.16754520     0.36500
C3786       C  0.18840476  0.64682823  0.16278543     0.36500
N3787       N  0.14624893  0.52033876  0.16984791    -0.38300
N3788       N  0.19302118  0.66881679  0.16492968    -0.38300
N3789       N  0.11426483  0.56659765  0.11898329    -0.37700
N3790       N  0.23272150  0.61870063  0.20878366    -0.37700
C3791       C  0.16362696  0.40326976  0.36251329    -0.04400
C3792       C  0.17778025  0.42588940  0.36973538    -0.01500
C3793       C  0.18800817  0.44262463  0.35033617     0.03500
C3794       C  0.18493321  0.43641687  0.32358887    -0.04400
C3795       C  0.17264792  0.41270399  0.31645622    -0.01500
C3796       C  0.16285521  0.39577673  0.33594088     0.03500
C3797       C  0.18195613  0.43186299  0.39720517     0.38100
C3798       C  0.17021598  0.40564815  0.28905113     0.38100
C3799       C  0.15347170  0.37001443  0.32881459     0.36500
C3800       C  0.20052952  0.46689453  0.35788485     0.36500
N3801       N  0.14624558  0.34935716  0.32316075    -0.38300
N3802       N  0.21035689  0.48635037  0.36389341    -0.38300
N3803       N  0.16818550  0.40003061  0.26719241    -0.37700
N3804       N  0.18526897  0.43655036  0.41912687    -0.37700
C3805       C  0.14372684  0.56078263  0.31055714    -0.04400
C3806       C  0.11735495  0.56707383  0.30526405    -0.01500
C3807       C  0.10440738  0.58595120  0.32062980     0.03500
C3808       C  0.11809723  0.59955752  0.34075933    -0.04400
C3809       C  0.14315130  0.59016881  0.34841240    -0.01500
C3810       C  0.15583472  0.57089056  0.33331907     0.03500
C3811       C  0.10388713  0.55525160  0.28316629     0.38100
C3812       C  0.15643725  0.59993262  0.37151617     0.38100
C3813       C  0.18154297  0.56138764  0.34123838     0.36500
C3814       C  0.07687672  0.59110328  0.31552011     0.36500
N3815       N  0.20198218  0.55377157  0.34755717    -0.38300
N3816       N  0.05498525  0.59496569  0.31088382    -0.38300
N3817       N  0.16743801  0.60669180  0.39017903    -0.37700
N3818       N  0.09311640  0.54581689  0.26557393    -0.37700
C3819       C  0.12258285  0.40790176  0.16638091    -0.04400
C3820       C  0.10826065  0.42766306  0.17932944    -0.01500
C3821       C  0.12150164  0.44777309  0.19272838     0.03500
C3822       C  0.14929751  0.44801760  0.19380623    -0.04400
C3823       C  0.16353123  0.42835984  0.18017356    -0.01500
C3824       C  0.15014465  0.40839091  0.16666216     0.03500
C3825       C  0.07975827  0.42776084  0.17807283     0.38100
C3826       C  0.19201568  0.42787025  0.18048141     0.38100
C3827       C  0.16478997  0.38753634  0.15417385     0.36500
C3828       C  0.10629188  0.46853921  0.20467271     0.36500
N3829       N  0.17662587  0.37090592  0.14443488    -0.38300
N3830       N  0.09404822  0.48504535  0.21413232    -0.38300
N3831       N  0.21472580  0.42749205  0.18038141    -0.37700
N3832       N  0.05706660  0.42775689  0.17691965    -0.37700
C3833       C  0.79094051  0.79839963  0.04944462    -0.04400
C3834       C  0.79907924  0.81919887  0.03342570    -0.01500
C3835       C  0.81257184  0.84077035  0.04435629     0.03500
C3836       C  0.82106469  0.84014740  0.07092423    -0.04400
C3837       C  0.81041323  0.81997296  0.08723586    -0.01500
C3838       C  0.79500232  0.79978773  0.07653397     0.03500
C3839       C  0.79293259  0.81864377  0.00566667     0.38100
C3840       C  0.81660323  0.81825822  0.11494460     0.38100
C3841       C  0.78432130  0.77956434  0.09336687     0.36500
C3842       C  0.81480244  0.86409330  0.02863314     0.36500
N3843       N  0.77565693  0.76356317  0.10676683    -0.38300
N3844       N  0.81580663  0.88247872  0.01555709    -0.38300
N3845       N  0.82226653  0.81556991  0.13672290    -0.37700
N3846       N  0.78807757  0.81814916  0.98353195    -0.37700
C3847       C  0.70543956  0.79549468  0.96082108    -0.04400
C3848       C  0.69847744  0.79347001  0.93417260    -0.01500
C3849       C  0.68710970  0.81478623  0.92110385     0.03500
C3850       C  0.67896724  0.83734178  0.93512779    -0.04400
C3851       C  0.68950087  0.84072717  0.96073866    -0.01500
C3852       C  0.70217261  0.81970949  0.97364627     0.03500
C3853       C  0.70212225  0.76911904  0.92004207     0.38100
C3854       C  0.69101132  0.86640500  0.97248730     0.38100
C3855       C  0.71315321  0.82347484  0.99962315     0.36500
C3856       C  0.68553313  0.81362164  0.89283031     0.36500
N3857       N  0.72208172  0.82649529  0.02025666    -0.38300
N3858       N  0.68560529  0.81174891  0.87029401    -0.38300
N3859       N  0.69260962  0.88686965  0.98194849    -0.37700
N3860       N  0.70486785  0.74979749  0.90865472    -0.37700
C3861       C  0.67770988  0.69046736  0.07187029    -0.04400
C3862       C  0.68185641  0.66890203  0.08872513    -0.01500
C3863       C  0.66081241  0.65793780  0.10301848     0.03500
C3864       C  0.63554603  0.66929780  0.10192917    -0.04400
C3865       C  0.63128935  0.69053904  0.08469467    -0.01500
C3866       C  0.65218474  0.70112831  0.06991991     0.03500
C3867       C  0.70807267  0.65819835  0.09193370     0.38100
C3868       C  0.60481236  0.70010209  0.08041080     0.38100
C3869       C  0.64697079  0.72222099  0.05174103     0.36500
C3870       C  0.66546129  0.63440676  0.11795141     0.36500
N3871       N  0.64273342  0.73903274  0.03724255    -0.38300
N3872       N  0.67014568  0.61519667  0.12885191    -0.38300
N3873       N  0.58363697  0.70738418  0.07666642    -0.37700
N3874       N  0.72895680  0.64969763  0.09458265    -0.37700
C3875       C  0.82250934  0.69636964  0.93714500    -0.04400
C3876       C  0.81670642  0.67384046  0.92211840    -0.01500
C3877       C  0.83580209  0.66274851  0.90530315     0.03500
C3878       C  0.86095050  0.67434638  0.90276794    -0.04400
C3879       C  0.86726698  0.69569947  0.91944495    -0.01500
C3880       C  0.84821935  0.70666845  0.93627561     0.03500
C3881       C  0.79144297  0.66101763  0.92499861     0.38100
C3882       C  0.89383147  0.70593045  0.92032207     0.38100
C3883       C  0.85524386  0.72878099  0.95264150     0.36500
C3884       C  0.82931094  0.63892470  0.89147367     0.36500
N3885       N  0.86091745  0.74627377  0.96582883    -0.38300
N3886       N  0.82356270  0.61953976  0.88134324    -0.38300
N3887       N  0.91491734  0.71429726  0.92108500    -0.37700
N3888       N  0.77143485  0.65059824  0.92737591    -0.37700
C3889       C  0.69643421  0.65916100  0.94453279    -0.04400
C3890       C  0.67738463  0.64088072  0.95287061    -0.01500
C3891       C  0.66088590  0.62838963  0.93427754     0.03500
C3892       C  0.66292923  0.63461999  0.90742712    -0.04400
C3893       C  0.68056610  0.65431322  0.89949710    -0.01500
C3894       C  0.69791340  0.66564160  0.91759977     0.03500
C3895       C  0.67441737  0.63523674  0.98050782     0.38100
C3896       C  0.68093483  0.66292684  0.87239158     0.38100
C3897       C  0.71823584  0.68304991  0.90796968     0.36500
C3898       C  0.64214793  0.60893070  0.94277788     0.36500
N3899       N  0.73450818  0.69674209  0.90020202    -0.38300
N3900       N  0.62713180  0.59358001  0.94989753    -0.38300
N3901       N  0.68108430  0.66983365  0.85083771    -0.37700
N3902       N  0.67197454  0.63078800  0.00257350    -0.37700
C3903       C  0.81562301  0.66011247  0.05979066    -0.04400
C3904       C  0.83303458  0.67364744  0.07702714    -0.01500
C3905       C  0.85092957  0.65973677  0.09286875     0.03500
C3906       C  0.84952678  0.63245973  0.09426554    -0.04400
C3907       C  0.83497633  0.61900108  0.07501121    -0.01500
C3908       C  0.81813672  0.63264270  0.05780287     0.03500
C3909       C  0.83218473  0.70182991  0.07970031     0.38100
C3910       C  0.83924734  0.59132995  0.07135142     0.38100
C3911       C  0.80409008  0.61825538  0.03770681     0.36500
C3912       C  0.87223662  0.67339931  0.10569576     0.36500
N3913       N  0.79300546  0.60670972  0.02164208    -0.38300
N3914       N  0.88983074  0.68467908  0.11453036    -0.38300
N3915       N  0.84301503  0.56944765  0.06733864    -0.37700
N3916       N  0.83158883  0.72427659  0.08206880    -0.37700
C3917       C  0.29885440  0.78960859  0.45536420    -0.04400
C3918       C  0.32647018  0.78915309  0.45357117    -0.01500
C3919       C  0.34025152  0.81148660  0.44575988     0.03500
C3920       C  0.32669369  0.83322809  0.43465590    -0.04400
C3921       C  0.29916075  0.83462568  0.43877172    -0.01500
C3922       C  0.28533931  0.81287993  0.44895849     0.03500
C3923       C  0.34106266  0.76521192  0.45839418     0.38100
C3924       C  0.28527284  0.85906389  0.43567772     0.38100
C3925       C  0.25732504  0.81490520  0.45371159     0.36500
C3926       C  0.36862748  0.81120005  0.44893859     0.36500
N3927       N  0.23500556  0.81658195  0.45755817    -0.38300
N3928       N  0.39121168  0.80977839  0.45094198    -0.38300
N3929       N  0.27378189  0.87842472  0.43365707    -0.37700
N3930       N  0.35269496  0.74616168  0.46202317    -0.37700
C3931       C  0.20591994  0.79271846  0.53501999    -0.04400
C3932       C  0.21991381  0.81184672  0.54916437    -0.01500
C3933       C  0.20707759  0.83467219  0.55795248     0.03500
C3934       C  0.17943446  0.83719371  0.55505799    -0.04400
C3935       C  0.16680881  0.82010601  0.53693254    -0.01500
C3936       C  0.17975820  0.79776578  0.52754971     0.03500
C3937       C  0.24787801  0.80859050  0.55364453     0.38100
C3938       C  0.14020059  0.82503404  0.52795497     0.38100
C3939       C  0.16559153  0.77946960  0.51097826     0.36500
C3940       C  0.22314617  0.85652178  0.56603538     0.36500
N3941       N  0.15422146  0.76507526  0.49767640    -0.38300
N3942       N  0.23646537  0.87384237  0.57200566    -0.38300
N3943       N  0.11916861  0.82870871  0.52021255    -0.37700
N3944       N  0.27016476  0.80591813  0.55717160    -0.37700
C3945       C  0.13991494  0.66958628  0.39897994    -0.04400
C3946       C  0.16617683  0.66921838  0.39020306    -0.01500
C3947       C  0.18657532  0.67788388  0.40682424     0.03500
C3948       C  0.18070490  0.68759872  0.43198672    -0.04400
C3949       C  0.15433606  0.68929936  0.44018302    -0.01500
C3950       C  0.13394671  0.68119789  0.42332197     0.03500
C3951       C  0.17211403  0.66094354  0.36371944     0.38100
C3952       C  0.14823788  0.69852536  0.46631401     0.38100
C3953       C  0.10677661  0.68541667  0.43071278     0.36500
C3954       C  0.21362261  0.67694466  0.39804744     0.36500
N3955       N  0.08508485  0.68879356  0.43648331    -0.38300
N3956       N  0.23522077  0.67624589  0.39110331    -0.38300
N3957       N  0.14336060  0.70554337  0.48727876    -0.37700
N3958       N  0.17695216  0.65436988  0.34259959    -0.37700
C3959       C  0.32568291  0.69468636  0.56926517    -0.04400
C3960       C  0.32021489  0.67196220  0.58386316    -0.01500
C3961       C  0.33994728  0.66005162  0.59931970     0.03500
C3962       C  0.36536015  0.67132656  0.60128836    -0.04400
C3963       C  0.37104491  0.69341175  0.58541862    -0.01500
C3964       C  0.35130924  0.70509844  0.56982869     0.03500
C3965       C  0.29442611  0.65996596  0.58197036     0.38100
C3966       C  0.39763880  0.70340880  0.58368564     0.38100
C3967       C  0.35738503  0.72813026  0.55448639     0.36500
C3968       C  0.33382972  0.63549610  0.61185832     0.36500
N3969       N  0.36226250  0.74649797  0.54228312    -0.38300
N3970       N  0.32823204  0.61547514  0.62066943    -0.38300
N3971       N  0.41877072  0.71155461  0.58222813    -0.37700
N3972       N  0.27388821  0.65043005  0.58041687    -0.37700
C3973       C  0.19861913  0.65172137  0.55994411    -0.04400
C3974       C  0.20348047  0.62529527  0.56578829    -0.01500
C3975       C  0.18803804  0.61222218  0.58458853     0.03500
C3976       C  0.16812769  0.62568578  0.59874641    -0.04400
C3977       C  0.16187112  0.65149807  0.59113713    -0.01500
C3978       C  0.17684352  0.66427778  0.57174149     0.03500
C3979       C  0.22513168  0.61166282  0.55338632     0.38100
C3980       C  0.14031406  0.66549805  0.60313268     0.38100
C3981       C  0.16950135  0.69047865  0.56370643     0.36500
C3982       C  0.19285138  0.58468219  0.58896548     0.36500
N3983       N  0.16368908  0.71134169  0.55729719    -0.38300
N3984       N  0.19733827  0.56283164  0.59235994    -0.38300
N3985       N  0.12293745  0.67715470  0.61182555    -0.37700
N3986       N  0.24238048  0.60071208  0.54358570    -0.37700
C3987       C  0.31092206  0.65694068  0.43869828    -0.04400
C3988       C  0.31746584  0.63024722  0.44021676    -0.01500
C3989       C  0.33214918  0.61843806  0.42005287     0.03500
C3990       C  0.34107371  0.63334654  0.39853709    -0.04400
C3991       C  0.33572820  0.66022952  0.39766054    -0.01500
C3992       C  0.32023287  0.67191064  0.41726082     0.03500
C3993       C  0.30996470  0.61505389  0.46295666     0.38100
C3994       C  0.34605419  0.67602466  0.37655688     0.38100
C3995       C  0.31297440  0.69917821  0.41454445     0.36500
C3996       C  0.33935177  0.59120507  0.42240693     0.36500
N3997       N  0.30715718  0.72088299  0.41231132    -0.38300
N3998       N  0.34558419  0.56972073  0.42536365    -0.38300
N3999       N  0.35431150  0.68924935  0.36020797    -0.37700
N4000       N  0.30411488  0.60292838  0.48112326    -0.37700
loop_ 
_geom_bond_atom_site_label_1 
_geom_bond_atom_site_label_2 
_geom_bond_distance 
_geom_bond_site_symmetry_2 
_ccdc_geom_bond_type 
O1           C17   1.274       .  A
O1           Zn7   1.991       .  S
C2           O18   1.271       .  A
C2           O15   1.277       .  A
C2         C3959   1.493       .  S
O3           C16   1.282       .  A
O3          Cd10   2.100       .  S
O4           C22   1.275       .  A
O4          Cd13   2.045       .  S
O5           C19   1.274       .  A
O5           Cd9   2.045       .  S
O6           C17   1.276       .  A
O6           Cd9   2.076       .  S
Zn7          O18   2.007       .  S
Zn7          O20   1.974       .  S
Zn7          O12   1.882       .  S
O8           C19   1.280       .  A
O8          Cd13   2.084       .  S
Cd9          O11   2.084       .  S
Cd9          O12   1.980       .  S
Cd10         O14   2.065       .  S
Cd10         O23   2.102       .  S
Cd10         O12   1.977       .  S
O11          C21   1.277       .  A
O12         Cd13   1.966       .  S
Cd13         O15   2.093       .  S
O14          C21   1.273       .  A
C16          O20   1.272       .  A
C16        C3987   1.489       .  S
C17        C3917   1.490       .  S
C19        C3931   1.482       .  S
C21        C3948   1.479       .  S
C22          O23   1.283       .  A
C22        C3973   1.494       .  S
O24          C40   1.274       .  A
O24         Zn30   2.024   1_556  S
C25          O41   1.277       .  A
C25          O38   1.280       .  A
C25        C3833   1.479       .  S
O26          C39   1.285       .  A
O26         Cd33   2.117       .  S
O27          C45   1.284       .  A
O27         Cd36   2.115       .  S
O28          C42   1.275       .  A
O28         Cd32   2.051       .  S
O29          C40   1.274       .  A
O29         Cd32   2.077       .  S
Zn30         O41   2.016       .  S
Zn30         O43   1.979       .  S
Zn30         O35   1.894       .  S
O31          C42   1.279       .  A
O31         Cd36   2.092   1_556  S
Cd32         O34   2.024       .  S
Cd32         O35   1.937   1_556  S
Cd33         O37   2.124   1_554  S
Cd33         O46   2.062       .  S
Cd33         O35   1.976       .  S
O34          C44   1.271       .  A
O35         Cd36   1.982       .  S
Cd36         O38   2.080       .  S
O37          C44   1.284       .  A
C39          O43   1.272       .  A
C39        C3903   1.505       .  S
C40        C3875   1.500       .  S
C42        C3847   1.491       .  S
C44        C3889   1.492       .  S
C45          O46   1.275       .  A
C45        C3861   1.499       .  S
O47          C63   1.275       .  A
O47         Zn53   2.023       .  S
C48          O64   1.277       .  A
C48          O61   1.276       .  A
C48        C3766   1.478       .  S
O49          C62   1.278       .  A
O49         Cd56   2.073       .  S
O50          C68   1.279       .  A
O50         Cd59   2.104       .  S
O51          C65   1.279       .  A
O51         Cd55   2.079       .  S
O52          C63   1.277       .  A
O52         Cd55   2.089       .  S
Zn53         O64   2.022       .  S
Zn53         O66   1.993       .  S
Zn53         O58   1.909       .  S
O54          C65   1.277       .  A
O54         Cd59   2.071       .  S
Cd55         O57   2.044       .  S
Cd55         O58   1.969       .  S
Cd56         O60   2.085       .  S
Cd56         O69   2.057       .  S
Cd56         O58   1.982       .  S
O57          C67   1.274       .  A
O58         Cd59   1.982       .  S
Cd59         O61   2.066       .  S
O60          C67   1.279       .  A
C62          O66   1.273       .  A
C62        C3822   1.494       .  S
C63        C3777   1.498       .  S
C65        C3749   1.496       .  S
C67        C3805   1.484       .  S
C68          O69   1.271       .  A
C68        C3794   1.486       .  S
O70          C86   1.273       .  A
O70         Zn76   2.017       .  S
C71          O87   1.277       .  A
C71          O84   1.279       .  A
C71        C3668   1.493       .  S
O72          C85   1.284       .  A
O72         Cd79   2.115       .  S
O73          C91   1.281       .  A
O73         Cd82   2.104       .  S
O74          C88   1.280       .  A
O74         Cd78   2.083       .  S
O75          C86   1.278       .  A
O75         Cd78   2.100       .  S
Zn76         O87   2.011       .  S
Zn76         O89   1.970       .  S
Zn76         O81   1.894       .  S
O77          C88   1.276       .  A
O77         Cd82   2.057       .  S
Cd78         O80   2.039       .  S
Cd78         O81   1.967       .  S
Cd79         O83   2.117       .  S
Cd79         O92   2.065       .  S
Cd79         O81   1.984       .  S
O80          C90   1.272       .  A
O81         Cd82   1.976       .  S
Cd82         O84   2.085       .  S
O83          C90   1.284       .  A
C85          O89   1.272       .  A
C85        C3738   1.484       .  S
C86        C3696   1.495       .  S
C88        C3679   1.482       .  S
C90        C3724   1.486       .  S
C91          O92   1.274       .  A
C91        C3707   1.506       .  S
O93         C109   1.274       .  A
O93         Zn99   2.022       .  S
C94         O110   1.275       .  A
C94         O107   1.280       .  A
C94        C3581   1.510       .  S
O95         C108   1.280       .  A
O95        Cd102   2.096       .  S
O96         C114   1.283       .  A
O96        Cd105   2.109       .  S
O97         C111   1.277       .  A
O97        Cd101   2.059       .  S
O98         C109   1.277       .  A
O98        Cd101   2.084       .  S
Zn99        O110   2.000       .  S
Zn99        O112   1.962       .  S
Zn99        O104   1.880       .  S
O100        C111   1.277       .  A
O100       Cd105   2.071       .  S
Cd101       O103   2.033       .  S
Cd101       O104   1.946       .  S
Cd102       O106   2.101       .  S
Cd102       O115   2.055       .  S
Cd102       O104   1.976       .  S
O103        C113   1.271       .  A
O104       Cd105   1.979       .  S
Cd105       O107   2.096       .  S
O106        C113   1.281       .  A
C108        O112   1.270       .  A
C108       C3637   1.472       .  S
C109       C3612   1.502       .  S
C111       C3595   1.483       .  S
C113       C3654   1.495       .  S
C114        O115   1.274       .  A
C114       C3623   1.494       .  S
O116        C132   1.271       .  A
O116       Zn122   1.976       .  S
C117        O133   1.270       .  A
C117        O130   1.275       .  A
C117       C3528   1.509       .  S
O118        C131   1.279       .  A
O118       Cd125   2.090       .  S
O119        C137   1.272       .  A
O119       Cd128   2.034       .  S
O120        C134   1.280       .  A
O120       Cd124   2.088       .  S
O121        C132   1.279       .  A
O121       Cd124   2.101       .  S
Zn122       O133   2.008       .  S
Zn122       O135   1.966       .  S
Zn122       O127   1.883       .  S
O123        C134   1.277       .  A
O123       Cd128   2.054       .  S
Cd124       O126   2.107       .  S
Cd124       O127   1.992       .  S
Cd125       O129   2.065       .  S
Cd125       O138   2.094       .  S
Cd125       O127   1.979       .  S
O126        C136   1.282       .  A
O127       Cd128   1.949       .  S
Cd128       O130   2.082       .  S
O129        C136   1.275       .  A
C131        O135   1.271       .  A
C131       C3553   1.470       .  S
C132       C3497   1.510       .  S
C134       C3511   1.490       .  S
C136       C3542   1.500       .  S
C137        O138   1.280       .  A
C137       C3570   1.484       .  S
O139        C155   1.275       .  A
O139       Zn145   2.006       .  S
C140        O156   1.274       .  A
C140        O153   1.274       .  A
C140       C3455   1.499       .  S
O141        C154   1.281       .  A
O141       Cd148   2.098       .  S
O142        C160   1.273       .  A
O142       Cd151   2.035       .  S
O143        C157   1.278       .  A
O143       Cd147   2.074   1_655  S
O144        C155   1.278       .  A
O144       Cd147   2.072       .  S
Zn145       O156   2.025   1_455  S
Zn145       O158   1.984       .  S
Zn145       O150   1.889   1_455  S
O146        C157   1.276       .  A
O146       Cd151   2.057       .  S
Cd147       O149   2.105       .  S
Cd147       O150   1.974   1_455  S
Cd148       O152   2.069       .  S
Cd148       O161   2.091   1_455  S
Cd148       O150   1.961   1_455  S
O149        C159   1.281       .  A
O150       Cd151   1.941       .  S
Cd151       O153   2.072       .  S
O152        C159   1.277       .  A
C154        O158   1.272       .  A
C154       C3483   1.511       .  S
C155       C3413   1.474       .  S
C157       C3427   1.493       .  S
C159       C3444   1.502       .  S
C160        O161   1.280       .  A
C160       C3472   1.481       .  S
O162        C178   1.271       .  A
O162       Zn168   1.997       .  S
C163        O179   1.273       .  A
C163        O176   1.280       .  A
C163       C3332   1.496       .  S
O164        C177   1.281       .  A
O164       Cd171   2.103   1_565  S
O165        C183   1.281       .  A
O165       Cd174   2.096       .  S
O166        C180   1.277       .  A
O166       Cd170   2.071       .  S
O167        C178   1.277       .  A
O167       Cd170   2.093       .  S
Zn168       O179   1.979   1_545  S
Zn168       O181   1.985   1_545  S
Zn168       O173   1.881       .  S
O169        C180   1.276       .  A
O169       Cd174   2.067   1_545  S
Cd170       O172   2.030       .  S
Cd170       O173   1.959       .  S
Cd171       O175   2.106       .  S
Cd171       O184   2.069   1_545  S
Cd171       O173   1.978       .  S
O172        C182   1.270       .  A
O173       Cd174   1.982   1_545  S
Cd174       O176   2.097       .  S
O175        C182   1.282       .  A
C177        O181   1.271       .  A
C177       C3385   1.479       .  S
C178       C3360   1.492       .  S
C180       C3346   1.483       .  S
C182       C3402   1.510       .  S
C183        O184   1.276       .  A
C183       C3371   1.499       .  S
O185        C201   1.277       .  A
O185       Zn191   2.021       .  S
C186        O202   1.276       .  A
C186        O199   1.275       .  A
C186       C3273   1.506       .  S
O187        C200   1.282       .  A
O187       Cd194   2.101       .  S
O188        C206   1.272       .  A
O188       Cd197   2.036       .  S
O189        C203   1.276       .  A
O189       Cd193   2.075       .  S
O190        C201   1.276       .  A
O190       Cd193   2.067       .  S
Zn191       O202   2.034       .  S
Zn191       O204   1.978       .  S
Zn191       O196   1.899       .  S
O192        C203   1.276       .  A
O192       Cd197   2.054       .  S
Cd193       O195   2.084       .  S
Cd193       O196   1.979       .  S
Cd194       O198   2.081       .  S
Cd194       O207   2.119       .  S
Cd194       O196   1.981       .  S
O195        C205   1.279       .  A
O196       Cd197   1.949       .  S
Cd197       O199   2.079       .  S
O198        C205   1.277       .  A
C200        O204   1.271       .  A
C200       C3315   1.475       .  S
C201       C3245   1.478       .  S
C203       C3262   1.483       .  S
C205       C3287   1.493       .  S
C206        O207   1.283       .  A
C206       C3301   1.508       .  S
C208        C209   1.541       .  S
C208        C214   1.529       .  S
C208        C212   1.542       .  S
C208       C3231   1.554       .  S
C209        H216   1.082       .  S
C209        C210   1.364       .  D
C210        C211   1.542       .  S
C210       C3217   1.485       .  S
C211        C215   1.547       .  S
C211        C213   1.546       .  S
C211        H217   1.109       .  S
C212        H218   1.084       .  S
C212        C213   1.366       .  D
C213       C3290   1.502       .  S
C214        H219   1.087       .  S
C214        C215   1.364       .  D
C215       C3388   1.509       .  S
C220        C221   1.547       .  S
C220        C226   1.529       .  S
C220        C224   1.537       .  S
C220       C3206   1.557       .  S
C221        H228   1.080       .  S
C221        C222   1.370       .  D
C222        C223   1.549       .  S
C222       C3357   1.505       .  S
C223        C227   1.542       .  S
C223        C225   1.554       .  S
C223        H229   1.109       .  S
C224        H230   1.085       .  S
C224        C225   1.371       .  D
C225       C3189   1.515       .  S
C226        H231   1.086       .  S
C226        C227   1.357       .  D
C227       C3469   1.492       .  S
C232        C233   1.544       .  S
C232        C238   1.517       .  S
C232        C236   1.553       .  S
C232       C3175   1.562       .  S
C233        H240   1.080       .  S
C233        C234   1.372       .  D
C234        C235   1.552       .  S
C234       C3147   1.518       .  S
C235        C239   1.551       .  S
C235        C237   1.549       .  S
C235        H241   1.103       .  S
C236        H242   1.083       .  S
C236        C237   1.378       .  D
C237       C3161   1.518       .  S
C238        H243   1.089       .  S
C238        C239   1.345       .  D
C239       C3304   1.488       .  S
C244        C245   1.548       .  S
C244        C250   1.535       .  S
C244        C248   1.539       .  S
C244       C3133   1.559       .  S
C245        H252   1.078       .  S
C245        C246   1.367       .  D
C246        C247   1.542       .  S
C246       C3119   1.501       .  S
C247        C251   1.542       .  S
C247        C249   1.552       .  S
C247        H253   1.109       .  S
C248        H254   1.086       .  S
C248        C249   1.374       .  D
C249       C3441   1.514       .  S
C250        H255   1.087       .  S
C250        C251   1.361       .  D
C251       C3651   1.490       .  S
C256        C257   1.541       .  S
C256        C262   1.522       .  S
C256        C260   1.549       .  S
C256       C3108   1.554       .  S
C257        H264   1.080       .  S
C257        C258   1.368       .  D
C258        C259   1.551       .  S
C258       C3626   1.505       .  S
C259        C263   1.541       .  S
C259        C261   1.554       .  S
C259        H265   1.109       .  S
C260        H266   1.084       .  S
C260        C261   1.377       .  D
C261       C3094   1.517       .  S
C262        H267   1.088       .  S
C262        C263   1.353       .  D
C263       C3077   1.492       .  S
C268        C269   1.525       .  S
C268        C274   1.536       .  S
C268        C272   1.551       .  S
C268       C3934   1.551       .  S
C269        H276   1.087       .  S
C269        C270   1.358       .  D
C270        C271   1.556       .  S
C270       C3063   1.488       .  S
C271        C275   1.547       .  S
C271        C273   1.546       .  S
C271        H277   1.103       .  S
C272        H278   1.074       .  S
C272        C273   1.373       .  D
C273       C3035   1.515       .  S
C274        H279   1.086       .  S
C274        C275   1.364       .  D
C275       C3049   1.515       .  S
O280        C296   1.276       .  A
O280       Zn286   2.033   1_455  S
C281        O297   1.275       .  A
C281        O294   1.272       .  A
C281       C3220   1.495       .  S
O282        C295   1.280       .  A
O282       Cd289   2.097       .  S
O283        C301   1.272       .  A
O283       Cd292   2.051       .  S
O284        C298   1.276       .  A
O284       Cd288   2.087   1_565  S
O285        C296   1.275       .  A
O285       Cd288   2.072       .  S
Zn286       O297   2.015   1_545  S
Zn286       O299   2.015       .  S
Zn286       O291   1.949   1_655  S
O287        C298   1.271       .  A
O287       Cd292   2.053   1_455  S
Cd288       O290   2.066       .  S
Cd288       O291   2.003       .  S
Cd289       O293   2.085   1_655  S
Cd289       O302   2.117       .  S
Cd289       O291   2.013   1_655  S
O290        C300   1.276       .  A
O291       Cd292   1.987   1_445  S
Cd292       O294   2.057       .  S
O293        C300   1.279       .  A
C295        O299   1.273       .  A
C295       C3192   1.498       .  S
C296       C3122   1.496       .  S
C298       C3066   1.510       .  S
C300       C3091   1.498       .  S
C301        O302   1.280   1_565  A
C301       C3164   1.490       .  S
O303        C319   1.273       .  A
O303       Zn309   2.014       .  S
C304        O320   1.276       .  A
C304        O317   1.280       .  A
C304       C2965   1.499       .  S
O305        C318   1.281       .  A
O305       Cd312   2.092       .  S
O306        C324   1.280       .  A
O306       Cd315   2.108       .  S
O307        C321   1.278       .  A
O307       Cd311   2.074       .  S
O308        C319   1.276       .  A
O308       Cd311   2.084       .  S
Zn309       O320   2.006       .  S
Zn309       O322   1.987       .  S
Zn309       O314   1.889       .  S
O310        C321   1.276       .  A
O310       Cd315   2.065       .  S
Cd311       O313   2.048       .  S
Cd311       O314   1.967       .  S
Cd312       O316   2.090       .  S
Cd312       O325   2.040       .  S
Cd312       O314   1.970       .  S
O313        C323   1.274       .  A
O314       Cd315   1.986       .  S
Cd315       O317   2.089       .  S
O316        C323   1.281       .  A
C318        O322   1.272       .  A
C318       C3007   1.501       .  S
C319       C2979   1.496       .  S
C321       C3203   1.478       .  S
C323       C3021   1.497       .  S
C324        O325   1.270       .  A
C324       C2993   1.488       .  S
O326        C342   1.273       .  A
O326       Zn332   2.027   1_455  S
C327        O343   1.275       .  A
C327        O340   1.278       .  A
C327       C2909   1.518       .  S
O328        C341   1.280       .  A
O328       Cd335   2.098       .  S
O329        C347   1.281       .  A
O329       Cd338   2.104       .  S
O330        C344   1.277       .  A
O330       Cd334   2.065       .  S
O331        C342   1.275       .  A
O331       Cd334   2.076       .  S
Zn332       O343   2.011       .  S
Zn332       O345   1.967       .  S
Zn332       O337   1.910   1_655  S
O333        C344   1.275       .  A
O333       Cd338   2.063   1_455  S
Cd334       O336   2.056       .  S
Cd334       O337   1.963       .  S
Cd335       O339   2.101   1_655  S
Cd335       O348   2.065       .  S
Cd335       O337   1.988   1_655  S
O336        C346   1.275       .  A
O337       Cd338   1.993   1_455  S
Cd338       O340   2.091       .  S
O339        C346   1.280       .  A
C341        O345   1.270       .  A
C341       C2951   1.473       .  S
C342       C2940   1.517       .  S
C344       C2923   1.488       .  S
C346       C3052   1.489       .  S
C347        O348   1.275       .  A
C347       C3150   1.498       .  S
C349        C350   1.529       .  S
C349        C355   1.538       .  S
C349        C353   1.556       .  S
C349       C2898   1.565       .  S
C350        H357   1.087       .  S
C350        C351   1.359       .  D
C351        C352   1.558       .  S
C351       C2937   1.494       .  S
C352        C356   1.543       .  S
C352        C354   1.544       .  S
C352        H358   1.102       .  S
C353        H359   1.079       .  S
C353        C354   1.373       .  D
C354       C2881   1.520       .  S
C355        H360   1.087       .  S
C355        C356   1.363       .  D
C356       C3976   1.511       .  S
C361        C362   1.520       .  S
C361        C367   1.539       .  S
C361        C365   1.550       .  S
C361       C3598   1.549       .  S
C362        H369   1.087       .  S
C362        C363   1.355       .  D
C363        C364   1.558       .  S
C363       C3791   1.491       .  S
C364        C368   1.548       .  S
C364        C366   1.545       .  S
C364        H370   1.102       .  S
C365        H371   1.077       .  S
C365        C366   1.373       .  D
C366       C2867   1.514       .  S
C367        H372   1.085       .  S
C367        C368   1.366       .  D
C368       C3486   1.514       .  S
C373        C374   1.543       .  S
C373        C379   1.537       .  S
C373        C377   1.531       .  S
C373       C3259   1.548       .  S
C374        H381   1.083       .  S
C374        C375   1.366       .  D
C375        C376   1.545       .  S
C375       C2853   1.495       .  S
C376        C380   1.542       .  S
C376        C378   1.553       .  S
C376        H382   1.109       .  S
C377        H383   1.086       .  S
C377        C378   1.369       .  D
C378       C2839   1.510       .  S
C379        H384   1.086       .  S
C379        C380   1.361       .  D
C380       C2954   1.488       .  S
C385        C386   1.551       .  S
C385        C391   1.531       .  S
C385        C389   1.531       .  S
C385       C3514   1.554       .  S
C386        H393   1.082       .  S
C386        C387   1.376       .  D
C387        C388   1.546       .  S
C387       C2825   1.507       .  S
C388        C392   1.546       .  S
C388        C390   1.552       .  S
C388        H394   1.108       .  S
C389        H395   1.086       .  S
C389        C390   1.366       .  D
C390       C3458   1.512       .  S
C391        H396   1.086       .  S
C391        C392   1.356       .  D
C392       C3024   1.497       .  S
C397        C398   1.541       .  S
C397        C403   1.533       .  S
C397        C401   1.548       .  S
C397       C2811   1.565       .  S
C398        H405   1.081       .  S
C398        C399   1.364       .  D
C399        C400   1.547       .  S
C399       C2996   1.498       .  S
C400        C404   1.541       .  S
C400        C402   1.548       .  S
C400        H406   1.110       .  S
C401        H407   1.084       .  S
C401        C402   1.371       .  D
C402       C2797   1.508       .  S
C403        H408   1.087       .  S
C403        C404   1.360       .  D
C404       C2783   1.497       .  S
C409        C410   1.553       .  S
C409        C415   1.542       .  S
C409        C413   1.521       .  S
C409       C2769   1.550       .  S
C410        H417   1.078       .  S
C410        C411   1.376       .  D
C411        C412   1.542       .  S
C411       C2755   1.515       .  S
C412        C416   1.540       .  S
C412        C414   1.552       .  S
C412        H418   1.101       .  S
C413        H419   1.087       .  S
C413        C414   1.355       .  D
C414       C3945   1.486       .  S
C415        H420   1.085       .  S
C415        C416   1.366       .  D
C416       C3808   1.507       .  S
O421        C437   1.274       .  A
O421       Zn427   2.017       .  S
C422        O438   1.277       .  A
C422        O435   1.272       .  A
C422       C2856   1.498       .  S
O423        C436   1.279       .  A
O423       Cd430   2.098       .  S
O424        C442   1.273       .  A
O424       Cd433   2.054       .  S
O425        C439   1.274       .  A
O425       Cd429   2.078   1_655  S
O426        C437   1.275       .  A
O426       Cd429   2.072       .  S
Zn427       O438   2.039   1_455  S
Zn427       O440   2.009       .  S
Zn427       O432   1.945   1_455  S
O428        C439   1.273       .  A
O428       Cd433   2.054       .  S
Cd429       O431   2.055       .  S
Cd429       O432   2.003   1_455  S
Cd430       O434   2.095       .  S
Cd430       O443   2.107   1_455  S
Cd430       O432   2.022   1_455  S
O431        C441   1.274       .  A
O432       Cd433   1.986       .  S
Cd433       O435   2.058       .  S
O434        C441   1.279       .  A
C436        O440   1.274       .  A
C436       C2884   1.500       .  S
C437       C2758   1.485       .  S
C439       C2828   1.493       .  S
C441       C2870   1.498       .  S
C442        O443   1.279       .  A
C442       C2800   1.487       .  S
C444        C445   1.537       .  S
C444        C450   1.538       .  S
C444        C448   1.540       .  S
C444       C2744   1.554       .  S
C445        H452   1.078       .  S
C445        C446   1.360       .  D
C446        C447   1.556       .  S
C446       C2727   1.493       .  S
C447        C451   1.556       .  S
C447        C449   1.539       .  S
C447        H453   1.102       .  S
C448        H454   1.086       .  S
C448        C449   1.364       .  D
C449       C3525   1.503       .  S
C450        H455   1.084       .  S
C450        C451   1.374       .  D
C451       C3721   1.526       .  S
C456        C457   1.546       .  S
C456        C462   1.529       .  S
C456        C460   1.536       .  S
C456       C2713   1.551       .  S
C457        H464   1.080       .  S
C457        C458   1.370       .  D
C458        C459   1.550       .  S
C458       C3864   1.505       .  S
C459        C463   1.539       .  S
C459        C461   1.550       .  S
C459        H465   1.109       .  S
C460        H466   1.085       .  S
C460        C461   1.371       .  D
C461       C2702   1.510       .  S
C462        H467   1.087       .  S
C462        C463   1.353       .  D
C463       C3556   1.483       .  S
C468        C469   1.558       .  S
C468        C474   1.537       .  S
C468        C472   1.524       .  S
C468       C2685   1.555       .  S
C469        H476   1.073       .  S
C469        C470   1.382       .  D
C470        C471   1.549       .  S
C470       C2671   1.529       .  S
C471        C475   1.534       .  S
C471        C473   1.554       .  S
C471        H477   1.101       .  S
C472        H478   1.087       .  S
C472        C473   1.356       .  D
C473       C2643   1.489       .  S
C474        H479   1.087       .  S
C474        C475   1.359       .  D
C475       C2657   1.499       .  S
C480        C481   1.533       .  S
C480        C486   1.538       .  S
C480        C484   1.548       .  S
C480       C2629   1.554       .  S
C481        H488   1.086       .  S
C481        C482   1.364       .  D
C482        C483   1.547       .  S
C482       C2601   1.500       .  S
C483        C487   1.546       .  S
C483        C485   1.546       .  S
C483        H489   1.109       .  S
C484        H490   1.077       .  S
C484        C485   1.371       .  D
C485       C2615   1.503       .  S
C486        H491   1.087       .  S
C486        C487   1.364       .  D
C487       C2587   1.507       .  S
C492        C493   1.538       .  S
C492        C498   1.529       .  S
C492        C496   1.547       .  S
C492       C2573   1.560       .  S
C493        H500   1.086       .  S
C493        C494   1.370       .  D
C494        C495   1.550       .  S
C494       C2559   1.507       .  S
C495        C499   1.546       .  S
C495        C497   1.552       .  S
C495        H501   1.110       .  S
C496        H502   1.080       .  S
C496        C497   1.369       .  D
C497       C2545   1.511       .  S
C498        H503   1.087       .  S
C498        C499   1.360       .  D
C499       C3892   1.492       .  S
C504        C505   1.535       .  S
C504        C510   1.530       .  S
C504        C508   1.554       .  S
C504       C3763   1.555       .  S
C505        H512   1.084       .  S
C505        C506   1.369       .  D
C506        C507   1.555       .  S
C506       C3710   1.520       .  S
C507        C511   1.540       .  S
C507        C509   1.549       .  S
C507        H513   1.107       .  S
C508        H514   1.080       .  S
C508        C509   1.377       .  D
C509       C2534   1.513       .  S
C510        H515   1.087       .  S
C510        C511   1.352       .  D
C511       C2517   1.491       .  S
O516        C532   1.275       .  A
O516       Zn522   2.028       .  S
C517        O533   1.274       .  A
C517        O530   1.276       .  A
C517       C2699   1.485       .  S
O518        C531   1.279       .  A
O518       Cd525   2.099       .  S
O519        C537   1.274       .  A
O519       Cd528   2.067       .  S
O520        C534   1.278       .  A
O520       Cd524   2.083   1_554  S
O521        C532   1.275       .  A
O521       Cd524   2.070       .  S
Zn522       O533   2.019   1_556  S
Zn522       O535   1.999       .  S
Zn522       O527   1.953       .  S
O523        C534   1.276       .  A
O523       Cd528   2.090       .  S
Cd524       O526   2.068       .  S
Cd524       O527   1.994       .  S
Cd525       O529   2.103       .  S
Cd525       O538   2.095       .  S
Cd525       O527   2.021       .  S
O526        C536   1.274       .  A
O527       Cd528   2.007   1_556  S
Cd528       O530   2.074       .  S
O529        C536   1.279       .  A
C531        O535   1.272       .  A
C531       C2562   1.492       .  S
C532       C2618   1.490       .  S
C534       C2531   1.500       .  S
C536       C2674   1.515       .  S
C537        O538   1.278   1_554  A
C537       C2730   1.482       .  S
O539        C555   1.275       .  A
O539       Zn545   2.031       .  S
C540        O556   1.278       .  A
C540        O553   1.277       .  A
C540       C2895   1.481       .  S
O541        C554   1.280       .  A
O541       Cd548   2.088       .  S
O542        C560   1.279       .  A
O542       Cd551   2.099       .  S
O543        C557   1.279       .  A
O543       Cd547   2.077       .  S
O544        C555   1.277       .  A
O544       Cd547   2.091       .  S
Zn545       O556   2.018       .  S
Zn545       O558   1.975       .  S
Zn545       O550   1.891       .  S
O546        C557   1.276       .  A
O546       Cd551   2.064       .  S
Cd547       O549   2.045       .  S
Cd547       O550   1.959       .  S
Cd548       O552   2.075       .  S
Cd548       O561   2.059       .  S
Cd548       O550   1.969       .  S
O549        C559   1.275       .  A
O550       Cd551   1.978       .  S
Cd551       O553   2.065       .  S
O552        C559   1.280       .  A
C554        O558   1.273       .  A
C554       C2503   1.481       .  S
C555       C2489   1.503       .  S
C557       C2475   1.494       .  S
C559       C2660   1.485       .  S
C560        O561   1.273       .  A
C560       C2604   1.491       .  S
C562        C563   1.548       .  S
C562        C568   1.536       .  S
C562        C566   1.533       .  S
C562       C3248   1.555       .  S
C563        H570   1.075       .  S
C563        C564   1.367       .  D
C564        C565   1.546       .  S
C564       C2464   1.509       .  S
C565        C569   1.547       .  S
C565        C567   1.556       .  S
C565        H571   1.108       .  S
C566        H572   1.086       .  S
C566        C567   1.371       .  D
C567       C3539   1.516       .  S
C568        H573   1.087       .  S
C568        C569   1.362       .  D
C569       C2447   1.496       .  S
C574        C575   1.554       .  S
C574        C580   1.530       .  S
C574        C578   1.536       .  S
C574       C2433   1.558       .  S
C575        H582   1.080       .  S
C575        C576   1.375       .  D
C576        C577   1.548       .  S
C576       C2419   1.513       .  S
C577        C581   1.543       .  S
C577        C579   1.551       .  S
C577        H583   1.109       .  S
C578        H584   1.086       .  S
C578        C579   1.370       .  D
C579       C2408   1.512       .  S
C580        H585   1.087       .  S
C580        C581   1.354       .  D
C581       C3010   1.488       .  S
C586        C587   1.557       .  S
C586        C592   1.517       .  S
C586        C590   1.543       .  S
C586       C2391   1.559       .  S
C587        H594   1.077       .  S
C587        C588   1.380       .  D
C588        C589   1.544       .  S
C588       C2377   1.519       .  S
C589        C593   1.548       .  S
C589        C591   1.548       .  S
C589        H595   1.102       .  S
C590        H596   1.085       .  S
C590        C591   1.370       .  D
C591       C3962   1.516       .  S
C592        H597   1.088       .  S
C592        C593   1.346       .  D
C593       C2506   1.481       .  S
C598        C599   1.549       .  S
C598        C604   1.534       .  S
C598        C602   1.549       .  S
C598       C3752   1.573       .  S
C599        H606   1.072       .  S
C599        C600   1.364       .  D
C600        C601   1.538       .  S
C600       C2349   1.505       .  S
C601        C605   1.537       .  S
C601        C603   1.550       .  S
C601        H607   1.105       .  S
C602        H608   1.084       .  S
C602        C603   1.381       .  D
C603       C2363   1.519       .  S
C604        H609   1.087       .  S
C604        C605   1.355       .  D
C605       C3990   1.487       .  S
C610        C611   1.545       .  S
C610        C616   1.533       .  S
C610        C614   1.536       .  S
C610       C3682   1.554       .  S
C611        H618   1.081       .  S
C611        C612   1.365       .  D
C612        C613   1.546       .  S
C612       C2982   1.502       .  S
C613        C617   1.546       .  S
C613        C615   1.546       .  S
C613        H619   1.109       .  S
C614        H620   1.086       .  S
C614        C615   1.369       .  D
C615       C2335   1.495       .  S
C616        H621   1.086       .  S
C616        C617   1.364       .  D
C617       C3567   1.499       .  S
C622        C623   1.547       .  S
C622        C628   1.524       .  S
C622        C626   1.546       .  S
C622       C3584   1.558       .  S
C623        H630   1.074       .  S
C623        C624   1.365       .  D
C624        C625   1.543       .  S
C624       C2492   1.512       .  S
C625        C629   1.555       .  S
C625        C627   1.553       .  S
C625        H631   1.103       .  S
C626        H632   1.083       .  S
C626        C627   1.380       .  D
C627       C2321   1.529       .  S
C628        H633   1.088       .  S
C628        C629   1.353       .  D
C629       C2307   1.487       .  S
O634        C650   1.276       .  A
O634       Zn640   2.035       .  S
C635        O651   1.275       .  A
C635        O648   1.274       .  A
C635       C2338   1.508       .  S
O636        C649   1.280       .  A
O636       Cd643   2.113       .  S
O637        C655   1.273       .  A
O637       Cd646   2.054       .  S
O638        C652   1.275       .  A
O638       Cd642   2.066       .  S
O639        C650   1.275       .  A
O639       Cd642   2.076       .  S
Zn640       O651   2.033       .  S
Zn640       O653   2.007       .  S
Zn640       O645   1.949       .  S
O641        C652   1.275       .  A
O641       Cd646   2.084       .  S
Cd642       O644   2.048       .  S
Cd642       O645   1.994       .  S
Cd643       O647   2.110       .  S
Cd643       O656   2.118       .  S
Cd643       O645   2.033       .  S
O644        C654   1.273       .  A
O645       Cd646   1.997       .  S
Cd646       O648   2.065       .  S
O647        C654   1.280       .  A
C649        O653   1.275       .  A
C649       C2422   1.494       .  S
C650       C2324   1.502       .  S
C652       C2366   1.490       .  S
C654       C2380   1.491       .  S
C655        O656   1.281       .  A
C655       C2461   1.502       .  S
O657        C673   1.277       .  A
O657       Zn663   2.020       .  S
C658        O674   1.274       .  A
C658        O671   1.278       .  A
C658       C2548   1.498       .  S
O659        C672   1.280       .  A
O659       Cd666   2.095       .  S
O660        C678   1.273       .  A
O660       Cd669   2.036       .  S
O661        C675   1.277       .  A
O661       Cd665   2.060       .  S
O662        C673   1.278       .  A
O662       Cd665   2.073       .  S
Zn663       O674   2.022       .  S
Zn663       O676   1.984       .  S
Zn663       O668   1.903       .  S
O664        C675   1.280       .  A
O664       Cd669   2.088       .  S
Cd665       O667   2.112       .  S
Cd665       O668   1.979       .  S
Cd666       O670   2.077       .  S
Cd666       O679   2.109       .  S
Cd666       O668   1.984       .  S
O667        C677   1.281       .  A
O668       Cd669   1.964       .  S
Cd669       O671   2.100       .  S
O670        C677   1.277       .  A
C672        O676   1.272       .  A
C672       C2590   1.475       .  S
C673       C2394   1.490       .  S
C675       C2265   1.493       .  S
C677       C2279   1.501       .  S
C678        O679   1.282       .  A
C678       C2293   1.498       .  S
O680        C696   1.276       .  A
O680       Zn686   2.015   1_565  S
C681        O697   1.275       .  A
C681        O694   1.277       .  A
C681       C2209   1.498       .  S
O682        C695   1.279       .  A
O682       Cd689   2.090       .  S
O683        C701   1.275       .  A
O683       Cd692   2.055       .  S
O684        C698   1.278       .  A
O684       Cd688   2.079   1_545  S
O685        C696   1.279       .  A
O685       Cd688   2.081       .  S
Zn686       O697   2.031       .  S
Zn686       O699   1.998   1_545  S
Zn686       O691   1.904       .  S
O687        C698   1.279       .  A
O687       Cd692   2.077       .  S
Cd688       O690   2.114       .  S
Cd688       O691   1.989   1_565  S
Cd689       O693   2.059       .  S
Cd689       O702   2.079   1_565  S
Cd689       O691   1.975   1_565  S
O690        C700   1.281       .  A
O691       Cd692   1.960       .  S
Cd692       O694   2.089       .  S
O693        C700   1.274       .  A
C695        O699   1.273       .  A
C695       C2240   1.478       .  S
C696       C2195   1.479       .  S
C698       C3136   1.504       .  S
C700       C2223   1.499       .  S
C701        O702   1.279       .  A
C701       C2254   1.485       .  S
O703        C719   1.274       .  A
O703       Zn709   2.027   1_556  S
C704        O720   1.276       .  A
C704        O717   1.277       .  A
C704       C2125   1.494       .  S
O705        C718   1.283       .  A
O705       Cd712   2.113       .  S
O706        C724   1.280       .  A
O706       Cd715   2.099       .  S
O707        C721   1.276       .  A
O707       Cd711   2.070       .  S
O708        C719   1.273       .  A
O708       Cd711   2.062       .  S
Zn709       O720   2.000       .  S
Zn709       O722   1.989       .  S
Zn709       O714   1.912   1_554  S
O710        C721   1.276       .  A
O710       Cd715   2.077   1_556  S
Cd711       O713   2.045       .  S
Cd711       O714   1.957       .  S
Cd712       O716   2.107   1_554  S
Cd712       O725   2.052       .  S
Cd712       O714   1.982   1_554  S
O713        C723   1.275       .  A
O714       Cd715   1.987   1_556  S
Cd715       O717   2.063       .  S
O716        C723   1.283       .  A
C718        O722   1.272       .  A
C718       C2181   1.503       .  S
C719       C2156   1.512       .  S
C721       C2632   1.500       .  S
C723       C2167   1.483       .  S
C724        O725   1.273       .  A
C724       C2142   1.490       .  S
C726        C727   1.527       .  S
C726        C732   1.533       .  S
C726        C730   1.554       .  S
C726       C2111   1.557       .  S
C727        H734   1.086       .  S
C727        C728   1.360       .  D
C728        C729   1.558       .  S
C728       C2100   1.493       .  S
C729        C733   1.551       .  S
C729        C731   1.546       .  S
C729        H735   1.102       .  S
C730        H736   1.075       .  S
C730        C731   1.373       .  D
C731       C2282   1.517       .  S
C732        H737   1.085       .  S
C732        C733   1.366       .  D
C733       C2170   1.521       .  S
C738        C739   1.532       .  S
C738        C744   1.536       .  S
C738        C742   1.546       .  S
C738       C3850   1.555       .  S
C739        H746   1.086       .  S
C739        C740   1.370       .  D
C740        C741   1.555       .  S
C740       C2069   1.515       .  S
C741        C745   1.545       .  S
C741        C743   1.547       .  S
C741        H747   1.109       .  S
C742        H748   1.081       .  S
C742        C743   1.369       .  D
C743       C2083   1.504       .  S
C744        H749   1.087       .  S
C744        C745   1.361       .  D
C745       C2296   1.493       .  S
C750        C751   1.539       .  S
C750        C756   1.527       .  S
C750        C754   1.556       .  S
C750       C2055   1.557       .  S
C751        H758   1.086       .  S
C751        C752   1.366       .  D
C752        C753   1.542       .  S
C752       C2139   1.509       .  S
C753        C757   1.551       .  S
C753        C755   1.549       .  S
C753        H759   1.097       .  S
C754        H760   1.075       .  S
C754        C755   1.382       .  D
C755       C2041   1.530       .  S
C756        H761   1.088       .  S
C756        C757   1.352       .  D
C757       C2237   1.488       .  S
C762        C763   1.551       .  S
C762        C768   1.538       .  S
C762        C766   1.529       .  S
C762       C2027   1.554       .  S
C763        H770   1.078       .  S
C763        C764   1.374       .  D
C764        C765   1.547       .  S
C764       C2013   1.511       .  S
C765        C769   1.543       .  S
C765        C767   1.554       .  S
C765        H771   1.108       .  S
C766        H772   1.086       .  S
C766        C767   1.367       .  D
C767       C2212   1.509       .  S
C768        H773   1.087       .  S
C768        C769   1.359       .  D
C769       C3735   1.493       .  S
C774        C775   1.546       .  S
C774        C780   1.529       .  S
C774        C778   1.530       .  S
C774       C1999   1.548       .  S
C775        H782   1.074       .  S
C775        C776   1.381       .  D
C776        C777   1.563       .  S
C776       C1985   1.542       .  S
C777        C781   1.540       .  S
C777        C779   1.557       .  S
C777        H783   1.097       .  S
C778        H784   1.085       .  S
C778        C779   1.357       .  D
C779       C1971   1.491       .  S
C780        H785   1.087       .  S
C780        C781   1.358       .  D
C781       C1957   1.504       .  S
C786        C787   1.547       .  S
C786        C792   1.530       .  S
C786        C790   1.540       .  S
C786       C3343   1.555       .  S
C787        H794   1.078       .  S
C787        C788   1.368       .  D
C788        C789   1.545       .  S
C788       C3693   1.515       .  S
C789        C793   1.555       .  S
C789        C791   1.551       .  S
C789        H795   1.100       .  S
C790        H796   1.085       .  S
C790        C791   1.375       .  D
C791       C1946   1.523       .  S
C792        H797   1.087       .  S
C792        C793   1.355       .  D
C793       C1929   1.492       .  S
O798        C814   1.278       .  A
O798       Zn804   2.056   1_565  S
C799        O815   1.277       .  A
C799        O812   1.273       .  A
C799       C1988   1.484       .  S
O800        C813   1.282       .  A
O800       Cd807   2.117   1_556  S
O801        C819   1.271       .  A
O801       Cd810   2.037       .  S
O802        C816   1.274       .  A
O802       Cd806   2.077       .  S
O803        C814   1.272       .  A
O803       Cd806   2.057   1_566  S
Zn804       O815   2.048       .  S
Zn804       O817   2.017   1_545  S
Zn804       O809   1.960       .  S
O805        C816   1.274       .  A
O805       Cd810   2.079       .  S
Cd806       O808   2.045   1_545  S
Cd806       O809   1.987   1_554  S
Cd807       O811   2.127       .  S
Cd807       O820   2.124   1_565  S
Cd807       O809   2.032   1_564  S
O808        C818   1.272       .  A
O809       Cd810   1.995   1_556  S
Cd810       O812   2.059   1_554  S
O811        C818   1.283       .  A
C813        O817   1.275       .  A
C813       C2086   1.499       .  S
C814       C2097   1.515       .  S
C816       C2016   1.491       .  S
C818       C2044   1.508       .  S
C819        O820   1.282       .  A
C819       C1943   1.498       .  S
O821        C837   1.274       .  A
O821       Zn827   1.987       .  S
C822        O838   1.272       .  A
C822        O835   1.273       .  A
C822       C1873   1.494       .  S
O823        C836   1.284       .  A
O823       Cd830   2.115       .  S
O824        C842   1.272       .  A
O824       Cd833   2.025       .  S
O825        C839   1.276       .  A
O825       Cd829   2.072   1_455  S
O826        C837   1.277       .  A
O826       Cd829   2.072       .  S
Zn827       O838   2.012   1_655  S
Zn827       O840   1.974       .  S
Zn827       O832   1.904   1_655  S
O828        C839   1.275       .  A
O828       Cd833   2.062       .  S
Cd829       O831   2.097       .  S
Cd829       O832   1.988   1_655  S
Cd830       O834   2.069       .  S
Cd830       O843   2.113   1_655  S
Cd830       O832   1.988   1_655  S
O831        C841   1.279       .  A
O832       Cd833   1.962       .  S
Cd833       O835   2.072       .  S
O834        C841   1.274       .  A
C836        O840   1.270       .  A
C836       C1901   1.502       .  S
C837       C3234   1.482       .  S
C839       C2772   1.487       .  S
C841       C1890   1.484       .  S
C842        O843   1.283       .  A
C842       C1915   1.483       .  S
O844        C860   1.277       .  A
O844       Zn850   2.009       .  S
C845        O861   1.273       .  A
C845        O858   1.276       .  A
C845       C1845   1.493       .  S
O846        C859   1.282       .  A
O846       Cd853   2.099       .  S
O847        C865   1.273       .  A
O847       Cd856   2.048       .  S
O848        C862   1.277       .  A
O848       Cd852   2.074   1_554  S
O849        C860   1.280       .  A
O849       Cd852   2.094       .  S
Zn850       O861   2.015   1_556  S
Zn850       O863   1.965       .  S
Zn850       O855   1.894       .  S
O851        C862   1.277       .  A
O851       Cd856   2.062       .  S
Cd852       O854   2.105       .  S
Cd852       O855   1.977       .  S
Cd853       O857   2.062       .  S
Cd853       O866   2.117   1_556  S
Cd853       O855   1.969       .  S
O854        C864   1.282       .  A
O855       Cd856   1.940   1_556  S
Cd856       O858   2.079       .  S
O857        C864   1.274       .  A
C859        O863   1.270       .  A
C859       C1859   1.496       .  S
C860       C1831   1.507       .  S
C862       C2741   1.497       .  S
C864       C1974   1.482       .  S
C865        O866   1.284       .  A
C865       C1932   1.508       .  S
O867        C883   1.275       .  A
O867       Zn873   2.015       .  S
C868        O884   1.274       .  A
C868        O881   1.278       .  A
C868       C3038   1.506       .  S
O869        C882   1.278       .  A
O869       Cd876   2.094       .  S
O870        C888   1.275       .  A
O870       Cd879   2.052       .  S
O871        C885   1.276       .  A
O871       Cd875   2.059   1_565  S
O872        C883   1.274       .  A
O872       Cd875   2.059       .  S
Zn873       O884   2.015   1_545  S
Zn873       O886   2.002       .  S
Zn873       O878   1.909       .  S
O874        C885   1.280       .  A
O874       Cd879   2.091       .  S
Cd875       O877   2.095       .  S
Cd875       O878   1.982       .  S
Cd876       O880   2.071       .  S
Cd876       O889   2.077   1_545  S
Cd876       O878   1.991       .  S
O877        C887   1.277       .  A
O878       Cd879   1.980   1_545  S
Cd879       O881   2.095       .  S
O880        C887   1.274       .  A
C882        O886   1.274       .  A
C882       C3080   1.478       .  S
C883       C1792   1.471       .  S
C885       C2114   1.491       .  S
C887       C1803   1.492       .  S
C888        O889   1.278       .  A
C888       C1820   1.486       .  S
C890        C891   1.548       .  S
C890        C896   1.527       .  S
C890        C894   1.551       .  S
C890       C1775   1.567       .  S
C891        H898   1.082       .  S
C891        C892   1.373       .  D
C892        C893   1.548       .  S
C892       C1761   1.516       .  S
C893        C897   1.540       .  S
C893        C895   1.545       .  S
C893        H899   1.108       .  S
C894        H900   1.082       .  S
C894        C895   1.371       .  D
C895       C1806   1.507       .  S
C896        H901   1.087       .  S
C896        C897   1.356       .  D
C897       C1747   1.489       .  S
C902        C903   1.551       .  S
C902        C908   1.533       .  S
C902        C906   1.534       .  S
C902       C2198   1.555       .  S
C903        H910   1.079       .  S
C903        C904   1.381       .  D
C904        C905   1.552       .  S
C904       C1733   1.515       .  S
C905        C909   1.542       .  S
C905        C907   1.550       .  S
C905        H911   1.106       .  S
C906        H912   1.085       .  S
C906        C907   1.363       .  D
C907       C1876   1.514       .  S
C908        H913   1.087       .  S
C908        C909   1.353       .  D
C909       C2184   1.491       .  S
C914        C915   1.554       .  S
C914        C920   1.524       .  S
C914        C918   1.532       .  S
C914       C3430   1.550       .  S
C915        H922   1.078       .  S
C915        C916   1.378       .  D
C916        C917   1.543       .  S
C916       C1719   1.513       .  S
C917        C921   1.552       .  S
C917        C919   1.550       .  S
C917        H923   1.102       .  S
C918        H924   1.086       .  S
C918        C919   1.367       .  D
C919       C1848   1.514       .  S
C920        H925   1.088       .  S
C920        C921   1.350       .  D
C921       C3399   1.485       .  S
C926        C927   1.535       .  S
C926        C932   1.530       .  S
C926        C930   1.553       .  S
C926       C3836   1.557       .  S
C927        H934   1.085       .  S
C927        C928   1.366       .  D
C928        C929   1.553       .  S
C928       C3374   1.516       .  S
C929        C933   1.545       .  S
C929        C931   1.554       .  S
C929        H935   1.108       .  S
C930        H936   1.080       .  S
C930        C931   1.379       .  D
C931       C1705   1.517       .  S
C932        H937   1.087       .  S
C932        C933   1.352       .  D
C933       C1904   1.491       .  S
C938        C939   1.517       .  S
C938        C944   1.535       .  S
C938        C942   1.559       .  S
C938       C2926   1.550       .  S
C939        H946   1.087       .  S
C939        C940   1.353       .  D
C940        C941   1.555       .  S
C940       C2153   1.488       .  S
C941        C945   1.539       .  S
C941        C943   1.548       .  S
C941        H947   1.101       .  S
C942        H948   1.074       .  S
C942        C943   1.383       .  D
C943       C1694   1.526       .  S
C944        H949   1.086       .  S
C944        C945   1.360       .  D
C945       C1817   1.502       .  S
C950        C951   1.538       .  S
C950        C956   1.527       .  S
C950        C954   1.554       .  S
C950       C1677   1.558       .  S
C951        H958   1.086       .  S
C951        C952   1.367       .  D
C952        C953   1.552       .  S
C952       C1649   1.517       .  S
C953        C957   1.541       .  S
C953        C955   1.554       .  S
C953        H959   1.108       .  S
C954        H960   1.079       .  S
C954        C955   1.379       .  D
C955       C1666   1.520       .  S
C956        H961   1.088       .  S
C956        C957   1.351       .  D
C957       C1862   1.484       .  S
O962        C978   1.276       .  A
O962       Zn968   2.037   1_554  S
C963        O979   1.277       .  A
C963        O976   1.276       .  A
C963       C1764   1.501       .  S
O964        C977   1.281       .  A
O964       Cd971   2.118   1_545  S
O965        C983   1.273       .  A
O965       Cd974   2.057   1_565  S
O966        C980   1.273       .  A
O966       Cd970   2.069   1_465  S
O967        C978   1.273       .  A
O967       Cd970   2.060       .  S
Zn968       O979   2.031   1_655  S
Zn968       O981   2.007       .  S
Zn968       O973   1.946   1_655  S
O969        C980   1.278       .  A
O969       Cd974   2.091   1_564  S
Cd970       O972   2.046   1_545  S
Cd970       O973   1.997   1_654  S
Cd971       O975   2.120   1_556  S
Cd971       O984   2.116   1_655  S
Cd971       O973   2.034   1_665  S
O972        C982   1.272       .  A
O973       Cd974   2.000       .  S
Cd974       O976   2.080       .  S
O975        C982   1.281       .  A
C977        O981   1.274       .  A
C977       C1663   1.500       .  S
C978       C1722   1.498       .  S
C980       C1736   1.493       .  S
C982       C1708   1.495       .  S
C983        O984   1.282       .  A
C983       C1691   1.515       .  S
O985       C1001   1.280       .  A
O985       Zn991   2.029       .  S
C986       O1002   1.276       .  A
C986        O999   1.273       .  A
C986       C1621   1.488       .  S
O987       C1000   1.282       .  A
O987       Cd994   2.101       .  S
O988       C1006   1.273       .  A
O988       Cd997   2.040       .  S
O989       C1003   1.276       .  A
O989       Cd993   2.074   1_554  S
O990       C1001   1.276       .  A
O990       Cd993   2.061       .  S
Zn991      O1002   2.031   1_556  S
Zn991      O1004   2.004       .  S
Zn991       O996   1.919   1_556  S
O992       C1003   1.276       .  A
O992       Cd997   2.067       .  S
Cd993       O995   2.088       .  S
Cd993       O996   1.986   1_556  S
Cd994       O998   2.066       .  S
Cd994      O1007   2.096   1_556  S
Cd994       O996   1.983   1_556  S
O995       C1005   1.277       .  A
O996       Cd997   1.965       .  S
Cd997       O999   2.058       .  S
O998       C1005   1.274       .  A
C1000      O1004   1.273       .  A
C1000      C1635   1.489       .  S
C1001      C1778   1.496       .  S
C1003      C2030   1.492       .  S
C1005      C2646   1.479       .  S
C1006      O1007   1.281       .  A
C1006      C2520   1.491       .  S
O1008      C1024   1.278       .  A
O1008     Zn1014   2.029       .  S
C1009      O1025   1.274       .  A
C1009      O1022   1.277       .  A
C1009      C2842   1.495       .  S
O1010      C1023   1.281       .  A
O1010     Cd1017   2.091       .  S
O1011      C1029   1.269       .  A
O1011     Cd1020   2.031       .  S
O1012      C1026   1.279       .  A
O1012     Cd1016   2.074       .  S
O1013      C1024   1.278       .  A
O1013     Cd1016   2.079       .  S
Zn1014     O1025   2.025       .  S
Zn1014     O1027   1.984       .  S
Zn1014     O1019   1.901       .  S
O1015      C1026   1.277       .  A
O1015     Cd1020   2.065       .  S
Cd1016     O1018   2.111       .  S
Cd1016     O1019   1.976       .  S
Cd1017     O1021   2.059       .  S
Cd1017     O1030   2.112       .  S
Cd1017     O1019   1.981       .  S
O1018      C1028   1.281       .  A
O1019     Cd1020   1.953       .  S
Cd1020     O1022   2.086       .  S
O1021      C1028   1.273       .  A
C1023      O1027   1.272       .  A
C1023      C2786   1.507       .  S
C1024      C2436   1.483       .  S
C1026      C2576   1.488       .  S
C1028      C1593   1.496       .  S
C1029      O1030   1.282       .  A
C1029      C1607   1.513       .  S
O1031      C1047   1.272       .  A
O1031     Zn1037   2.008   1_655  S
C1032      O1048   1.275       .  A
C1032      O1045   1.277       .  A
C1032      C3105   1.502       .  S
O1033      C1046   1.281       .  A
O1033     Cd1040   2.100       .  S
O1034      C1052   1.282       .  A
O1034     Cd1043   2.110       .  S
O1035      C1049   1.280       .  A
O1035     Cd1039   2.079       .  S
O1036      C1047   1.278       .  A
O1036     Cd1039   2.098       .  S
Zn1037     O1048   1.999       .  S
Zn1037     O1050   1.953       .  S
Zn1037     O1042   1.900       .  S
O1038      C1049   1.275       .  A
O1038     Cd1043   2.060   1_655  S
Cd1039     O1041   2.035       .  S
Cd1039     O1042   1.965   1_655  S
Cd1040     O1044   2.110   1_455  S
Cd1040     O1053   2.059       .  S
Cd1040     O1042   1.989       .  S
O1041      C1051   1.272       .  A
O1042     Cd1043   1.986       .  S
Cd1043     O1045   2.077       .  S
O1044      C1051   1.283       .  A
C1046      O1050   1.267       .  A
C1046      C1750   1.500       .  S
C1047      C1652   1.503       .  S
C1049      C2814   1.506       .  S
C1051      C1579   1.488       .  S
C1052      O1053   1.273       .  A
C1052      C1568   1.491       .  S
C1054      C1055   1.538       .  S
C1054      C1060   1.534       .  S
C1054      C1058   1.547       .  S
C1054      C1834   1.569       .  S
C1055      H1062   1.085       .  S
C1055      C1056   1.365       .  D
C1056      C1057   1.561       .  S
C1056      C1551   1.498       .  S
C1057      C1061   1.547       .  S
C1057      C1059   1.547       .  S
C1057      H1063   1.104       .  S
C1058      H1064   1.078       .  S
C1058      C1059   1.367       .  D
C1059      C1596   1.512       .  S
C1060      H1065   1.086       .  S
C1060      C1061   1.366       .  D
C1061      C1582   1.520       .  S
C1066      C1067   1.529       .  S
C1066      C1072   1.535       .  S
C1066      C1070   1.546       .  S
C1066      C2478   1.552       .  S
C1067      H1074   1.087       .  S
C1067      C1068   1.355       .  D
C1068      C1069   1.543       .  S
C1068      C1565   1.499       .  S
C1069      C1073   1.559       .  S
C1069      C1071   1.551       .  S
C1069      H1075   1.105       .  S
C1070      H1076   1.078       .  S
C1070      C1071   1.374       .  D
C1071      C1537   1.501       .  S
C1072      H1077   1.083       .  S
C1072      C1073   1.368       .  D
C1073      C1638   1.526       .  S
C1078      C1079   1.550       .  S
C1078      C1084   1.525       .  S
C1078      C1082   1.553       .  S
C1078      C2912   1.569       .  S
C1079      H1086   1.075       .  S
C1079      C1080   1.369       .  D
C1080      C1081   1.544       .  S
C1080      C3878   1.516       .  S
C1081      C1085   1.553       .  S
C1081      C1083   1.547       .  S
C1081      H1087   1.102       .  S
C1082      H1088   1.084       .  S
C1082      C1083   1.380       .  D
C1083      C1523   1.527       .  S
C1084      H1089   1.088       .  S
C1084      C1085   1.351       .  D
C1085      C1610   1.488       .  S
C1090      C1091   1.554       .  S
C1090      C1096   1.530       .  S
C1090      C1094   1.534       .  S
C1090      C3416   1.554       .  S
C1091      H1098   1.080       .  S
C1091      C1092   1.381       .  D
C1092      C1093   1.551       .  S
C1092      C1512   1.515       .  S
C1093      C1097   1.536       .  S
C1093      C1095   1.550       .  S
C1093      H1099   1.106       .  S
C1094      H1100   1.085       .  S
C1094      C1095   1.367       .  D
C1095      C1624   1.515       .  S
C1096      H1101   1.087       .  S
C1096      C1097   1.350       .  D
C1097      C3819   1.482       .  S
C1102      C1103   1.539       .  S
C1102      C1108   1.543       .  S
C1102      C1106   1.535       .  S
C1102      C3500   1.554       .  S
C1103      H1110   1.083       .  S
C1103      C1104   1.377       .  D
C1104      C1105   1.555       .  S
C1104      C1498   1.525       .  S
C1105      C1109   1.537       .  S
C1105      C1107   1.558       .  S
C1105      H1111   1.106       .  S
C1106      H1112   1.083       .  S
C1106      C1107   1.358       .  D
C1107      C1887   1.493       .  S
C1108      H1113   1.086       .  S
C1108      C1109   1.360       .  D
C1109      C3906   1.496       .  S
C1114      C1115   1.549       .  S
C1114      C1120   1.532       .  S
C1114      C1118   1.532       .  S
C1114      C2128   1.561       .  S
C1115      H1122   1.078       .  S
C1115      C1116   1.371       .  D
C1116      C1117   1.548       .  S
C1116      C3780   1.515       .  S
C1117      C1121   1.543       .  S
C1117      C1119   1.556       .  S
C1117      H1123   1.103       .  S
C1118      H1124   1.086       .  S
C1118      C1119   1.361       .  D
C1119      C1484   1.488       .  S
C1120      H1125   1.087       .  S
C1120      C1121   1.364       .  D
C1121      C1918   1.514       .  S
O1126      C1142   1.275       .  A
O1126     Zn1132   2.027   1_455  S
C1127      O1143   1.277       .  A
C1127      O1140   1.278       .  A
C1127      C1526   1.507       .  S
O1128      C1141   1.278       .  A
O1128     Cd1135   2.094       .  S
O1129      C1147   1.276       .  A
O1129     Cd1138   2.080       .  S
O1130      C1144   1.276       .  A
O1130     Cd1134   2.079   1_556  S
O1131      C1142   1.274       .  A
O1131     Cd1134   2.072       .  S
Zn1132     O1143   2.051   1_554  S
Zn1132     O1145   2.007       .  S
Zn1132     O1137   1.955   1_654  S
O1133      C1144   1.278       .  A
O1133     Cd1138   2.087   1_455  S
Cd1134     O1136   2.064       .  S
Cd1134     O1137   2.003   1_554  S
Cd1135     O1139   2.099   1_655  S
Cd1135     O1148   2.100   1_554  S
Cd1135     O1137   2.023   1_654  S
O1136      C1146   1.274       .  A
O1137     Cd1138   2.000   1_455  S
Cd1138     O1140   2.083       .  S
O1139      C1146   1.278       .  A
C1141      O1145   1.273       .  A
C1141      C1495   1.501       .  S
C1142      C1481   1.516       .  S
C1144      C1540   1.499       .  S
C1146      C1509   1.495       .  S
C1147      O1148   1.279       .  A
C1147      C1554   1.488       .  S
O1149      C1165   1.274       .  A
O1149     Zn1155   2.018       .  S
C1150      O1166   1.278       .  A
C1150      O1163   1.276       .  A
C1150      C2058   1.487       .  S
O1151      C1164   1.281       .  A
O1151     Cd1158   2.095       .  S
O1152      C1170   1.278       .  A
O1152     Cd1161   2.088       .  S
O1153      C1167   1.278       .  A
O1153     Cd1157   2.075       .  S
O1154      C1165   1.278       .  A
O1154     Cd1157   2.094       .  S
Zn1155     O1166   2.032       .  S
Zn1155     O1168   1.978       .  S
Zn1155     O1160   1.906       .  S
O1156      C1167   1.275       .  A
O1156     Cd1161   2.050       .  S
Cd1157     O1159   2.047       .  S
Cd1157     O1160   1.961       .  S
Cd1158     O1162   2.114       .  S
Cd1158     O1171   2.083       .  S
Cd1158     O1160   1.986       .  S
O1159      C1169   1.273       .  A
O1160     Cd1161   1.972       .  S
Cd1161     O1163   2.067       .  S
O1162      C1169   1.282       .  A
C1164      O1168   1.272       .  A
C1164      C1467   1.471       .  S
C1165      C1453   1.498       .  S
C1167      C2716   1.481       .  S
C1169      C2450   1.509       .  S
C1170      O1171   1.277       .  A
C1170      C2352   1.494       .  S
O1172      C1188   1.278       .  A
O1172     Zn1178   1.996       .  S
C1173      O1189   1.274       .  A
C1173      O1186   1.272       .  A
C1173      C1425   1.486       .  S
O1174      C1187   1.283       .  A
O1174     Cd1181   2.118       .  S
O1175      C1193   1.274       .  A
O1175     Cd1184   2.038       .  S
O1176      C1190   1.276       .  A
O1176     Cd1180   2.078       .  S
O1177      C1188   1.278       .  A
O1177     Cd1180   2.071       .  S
Zn1178     O1189   2.022       .  S
Zn1178     O1191   1.971       .  S
Zn1178     O1183   1.890       .  S
O1179      C1190   1.275       .  A
O1179     Cd1184   2.061       .  S
Cd1180     O1182   2.087       .  S
Cd1180     O1183   1.976       .  S
Cd1181     O1185   2.074       .  S
Cd1181     O1194   2.112       .  S
Cd1181     O1183   1.975       .  S
O1182      C1192   1.280       .  A
O1183     Cd1184   1.942       .  S
Cd1184     O1186   2.063       .  S
O1185      C1192   1.276       .  A
C1187      O1191   1.268       .  A
C1187      C1442   1.483       .  S
C1188      C2002   1.489       .  S
C1190      C2688   1.499       .  S
C1192      C2405   1.490       .  S
C1193      O1194   1.284       .  A
C1193      C2310   1.498       .  S
O1195      C1211   1.273       .  A
O1195     Zn1201   2.011   1_565  S
C1196      O1212   1.276       .  A
C1196      O1209   1.275       .  A
C1196      C1680   1.477       .  S
O1197      C1210   1.280       .  A
O1197     Cd1204   2.095       .  S
O1198      C1216   1.279       .  A
O1198     Cd1207   2.100       .  S
O1199      C1213   1.282       .  A
O1199     Cd1203   2.098       .  S
O1200      C1211   1.280       .  A
O1200     Cd1203   2.110       .  S
Zn1201     O1212   2.020       .  S
Zn1201     O1214   1.993       .  S
Zn1201     O1206   1.906       .  S
O1202      C1213   1.274       .  A
O1202     Cd1207   2.052   1_565  S
Cd1203     O1205   2.060       .  S
Cd1203     O1206   1.978   1_565  S
Cd1204     O1208   2.089   1_545  S
Cd1204     O1217   2.056       .  S
Cd1204     O1206   1.981       .  S
O1205      C1215   1.276       .  A
O1206     Cd1207   1.983       .  S
Cd1207     O1209   2.059       .  S
O1208      C1215   1.281       .  A
C1210      O1214   1.273       .  A
C1210      C1960   1.507       .  S
C1211      C2072   1.500       .  S
C1213      C3178   1.506       .  S
C1215      C1414   1.490       .  S
C1216      O1217   1.273       .  A
C1216      C1400   1.492       .  S
C1218      C1219   1.535       .  S
C1218      C1224   1.540       .  S
C1218      C1222   1.533       .  S
C1218      C1789   1.547       .  S
C1219      H1226   1.083       .  S
C1219      C1220   1.360       .  D
C1220      C1221   1.553       .  S
C1220      C1383   1.490       .  S
C1221      C1225   1.530       .  S
C1221      C1223   1.560       .  S
C1221      H1227   1.100       .  S
C1222      H1228   1.083       .  S
C1222      C1223   1.376       .  D
C1223      C1428   1.531       .  S
C1224      H1229   1.086       .  S
C1224      C1225   1.359       .  D
C1225      C3640   1.488       .  S
C1230      C1231   1.549       .  S
C1230      C1236   1.537       .  S
C1230      C1234   1.535       .  S
C1230      C2268   1.561       .  S
C1231      H1238   1.085       .  S
C1231      C1232   1.368       .  D
C1232      C1233   1.536       .  S
C1232      C1369   1.507       .  S
C1233      C1237   1.562       .  S
C1233      C1235   1.559       .  S
C1233      H1239   1.101       .  S
C1234      H1240   1.076       .  S
C1234      C1235   1.358       .  D
C1235      C3276   1.499       .  S
C1236      H1241   1.083       .  S
C1236      C1237   1.373       .  D
C1237      C1411   1.532       .  S
C1242      C1243   1.549       .  S
C1242      C1248   1.538       .  S
C1242      C1246   1.525       .  S
C1242      C2968   1.552       .  S
C1243      H1250   1.079       .  S
C1243      C1244   1.373       .  D
C1244      C1245   1.545       .  S
C1244      C1397   1.511       .  S
C1245      C1249   1.548       .  S
C1245      C1247   1.552       .  S
C1245      H1251   1.100       .  S
C1246      H1252   1.087       .  S
C1246      C1247   1.358       .  D
C1247      C1355   1.489       .  S
C1248      H1253   1.083       .  S
C1248      C1249   1.367       .  D
C1249      C1439   1.519       .  S
C1254      C1255   1.531       .  S
C1254      C1260   1.531       .  S
C1254      C1258   1.548       .  S
C1254      C3920   1.552       .  S
C1255      H1262   1.085       .  S
C1255      C1256   1.369       .  D
C1256      C1257   1.553       .  S
C1256      C1344   1.509       .  S
C1257      C1261   1.540       .  S
C1257      C1259   1.553       .  S
C1257      H1263   1.109       .  S
C1258      H1264   1.083       .  S
C1258      C1259   1.375       .  D
C1259      C2226   1.507       .  S
C1260      H1265   1.086       .  S
C1260      C1261   1.352       .  D
C1261      C1470   1.495       .  S
C1266      C1267   1.546       .  S
C1266      C1272   1.533       .  S
C1266      C1270   1.533       .  S
C1266      C3329   1.554       .  S
C1267      H1274   1.084       .  S
C1267      C1268   1.374       .  D
C1268      C1269   1.553       .  S
C1268      C1456   1.509       .  S
C1269      C1273   1.542       .  S
C1269      C1271   1.552       .  S
C1269      H1275   1.109       .  S
C1270      H1276   1.086       .  S
C1270      C1271   1.370       .  D
C1271      C1327   1.509       .  S
C1272      H1277   1.086       .  S
C1272      C1273   1.354       .  D
C1273      C3318   1.493       .  S
C1278      C1279   1.532       .  S
C1278      C1284   1.533       .  S
C1278      C1282   1.557       .  S
C1278      C3665   1.564       .  S
C1279      H1286   1.086       .  S
C1279      C1280   1.361       .  D
C1280      C1281   1.557       .  S
C1280      C3609   1.494       .  S
C1281      C1285   1.547       .  S
C1281      C1283   1.536       .  S
C1281      H1287   1.101       .  S
C1282      H1288   1.078       .  S
C1282      C1283   1.372       .  D
C1283      C1313   1.508       .  S
C1284      H1289   1.086       .  S
C1284      C1285   1.366       .  D
C1285      C2251   1.518       .  S
O1290      C1306   1.277       .  A
O1290     Zn1296   2.049       .  S
C1291      O1307   1.276       .  A
C1291      O1304   1.273       .  A
C1291      C1341   1.486       .  S
O1292      C1305   1.277   1_545  A
O1292     Cd1299   2.085       .  S
O1293      C1311   1.272       .  A
O1293     Cd1302   2.055       .  S
O1294      C1308   1.276       .  A
O1294     Cd1298   2.081       .  S
O1295      C1306   1.275       .  A
O1295     Cd1298   2.071   1_565  S
Zn1296     O1307   2.025       .  S
Zn1296     O1309   2.019       .  S
Zn1296     O1301   1.952   1_565  S
O1297      C1308   1.274       .  A
O1297     Cd1302   2.066       .  S
Cd1298     O1300   2.062       .  S
Cd1298     O1301   1.996       .  S
Cd1299     O1303   2.085       .  S
Cd1299     O1312   2.092       .  S
Cd1299     O1301   2.010       .  S
O1300      C1310   1.273       .  A
O1301     Cd1302   1.999       .  S
Cd1302     O1304   2.062   1_545  S
O1303      C1310   1.277       .  A
C1305      O1309   1.275       .  A
C1305      C1330   1.496       .  S
C1306      C1372   1.508       .  S
C1308      C1386   1.500       .  S
C1310      C1358   1.479       .  S
C1311      O1312   1.278       .  A
C1311      C1316   1.493       .  S
C1313      C1314   1.419       .  A
C1313      C1318   1.418       .  A
C1314      C1315   1.413       .  A
C1314      C1319   1.447       .  S
C1315      C1316   1.411       .  A
C1315      C1322   1.453       .  S
C1316      C1317   1.415       .  A
C1317      C1318   1.415       .  A
C1317      C1320   1.454       .  S
C1318      C1321   1.448       .  S
C1319      N1326   1.156       .  T
C1320      N1325   1.158       .  T
C1321      N1323   1.157       .  T
C1322      N1324   1.157       .  T
C1327      C1328   1.422       .  A
C1327      C1332   1.417       .  A
C1328      C1329   1.413       .  A
C1328      C1333   1.449       .  S
C1329      C1330   1.412       .  A
C1329      C1336   1.453   1_565  S
C1330      C1331   1.415       .  A
C1331      C1332   1.416       .  A
C1331      C1334   1.453       .  S
C1332      C1335   1.449       .  S
C1333      N1340   1.156       .  T
C1334      N1339   1.158       .  T
C1335      N1337   1.157       .  T
C1336      N1338   1.157       .  T
C1341      C1342   1.412       .  A
C1341      C1346   1.406       .  A
C1342      C1343   1.414       .  A
C1342      C1347   1.453       .  S
C1343      C1344   1.419       .  A
C1343      C1350   1.449       .  S
C1344      C1345   1.425       .  A
C1345      C1346   1.411       .  A
C1345      C1348   1.447       .  S
C1346      C1349   1.454       .  S
C1347      N1354   1.157       .  T
C1348      N1353   1.156       .  T
C1349      N1351   1.157       .  T
C1350      N1352   1.157       .  T
C1355      C1356   1.412       .  A
C1355      C1360   1.413       .  A
C1356      C1357   1.410       .  A
C1356      C1361   1.450       .  S
C1357      C1358   1.411       .  A
C1357      C1364   1.451       .  S
C1358      C1359   1.411       .  A
C1359      C1360   1.412       .  A
C1359      C1362   1.450       .  S
C1360      C1363   1.451       .  S
C1361      N1368   1.157       .  T
C1362      N1367   1.157       .  T
C1363      N1365   1.157       .  T
C1364      N1366   1.157       .  T
C1369      C1370   1.413       .  A
C1369      C1374   1.413       .  A
C1370      C1371   1.413       .  A
C1370      C1375   1.445       .  S
C1371      C1372   1.418       .  A
C1371      C1378   1.454       .  S
C1372      C1373   1.421       .  A
C1373      C1374   1.420       .  A
C1373      C1376   1.452       .  S
C1374      C1377   1.447       .  S
C1375      N1382   1.155       .  T
C1376      N1381   1.158       .  T
C1377      N1379   1.156       .  T
C1378      N1380   1.158       .  T
C1383      C1384   1.412       .  A
C1383      C1388   1.406       .  A
C1384      C1385   1.412       .  A
C1384      C1389   1.453       .  S
C1385      C1386   1.421       .  A
C1385      C1392   1.452       .  S
C1386      C1387   1.421       .  A
C1387      C1388   1.411       .  A
C1387      C1390   1.451       .  S
C1388      C1391   1.451       .  S
C1389      N1396   1.157       .  T
C1390      N1395   1.158       .  T
C1391      N1393   1.157       .  T
C1392      N1394   1.158       .  T
C1397      C1398   1.419       .  A
C1397      C1402   1.423       .  A
C1398      C1399   1.413       .  A
C1398      C1403   1.448       .  S
C1399      C1400   1.413       .  A
C1399      C1406   1.455       .  S
C1400      C1401   1.410       .  A
C1401      C1402   1.417       .  A
C1401      C1404   1.451       .  S
C1402      C1405   1.450       .  S
C1403      N1410   1.157       .  T
C1404      N1409   1.157       .  T
C1405      N1407   1.157       .  T
C1406      N1408   1.158       .  T
C1411      C1412   1.428       .  A
C1411      C1416   1.438       .  A
C1412      C1413   1.417       .  A
C1412      C1417   1.447       .  S
C1413      C1414   1.410       .  A
C1413      C1420   1.454       .  S
C1414      C1415   1.402       .  A
C1415      C1416   1.413       .  A
C1415      C1418   1.455       .  S
C1416      C1419   1.450       .  S
C1417      N1424   1.158       .  T
C1418      N1423   1.158       .  T
C1419      N1421   1.157       .  T
C1420      N1422   1.157       .  T
C1425      C1426   1.402       .  A
C1425      C1430   1.407       .  A
C1426      C1427   1.413       .  A
C1426      C1431   1.454       .  S
C1427      C1428   1.435       .  A
C1427      C1434   1.450       .  S
C1428      C1429   1.430       .  A
C1429      C1430   1.415       .  A
C1429      C1432   1.447       .  S
C1430      C1433   1.454       .  S
C1431      N1438   1.157       .  T
C1432      N1437   1.158       .  T
C1433      N1435   1.157       .  T
C1434      N1436   1.157       .  T
C1439      C1440   1.424       .  A
C1439      C1444   1.423       .  A
C1440      C1441   1.409       .  A
C1440      C1445   1.452       .  S
C1441      C1442   1.406       .  A
C1441      C1448   1.452       .  S
C1442      C1443   1.412       .  A
C1443      C1444   1.416       .  A
C1443      C1446   1.451       .  S
C1444      C1447   1.448       .  S
C1445      N1452   1.157       .  T
C1446      N1451   1.157       .  T
C1447      N1449   1.158       .  T
C1448      N1450   1.157       .  T
C1453      C1454   1.416       .  A
C1453      C1458   1.413       .  A
C1454      C1455   1.417       .  A
C1454      C1459   1.453       .  S
C1455      C1456   1.417       .  A
C1455      C1462   1.448       .  S
C1456      C1457   1.417       .  A
C1457      C1458   1.415       .  A
C1457      C1460   1.450       .  S
C1458      C1461   1.451       .  S
C1459      N1466   1.157       .  T
C1460      N1465   1.157       .  T
C1461      N1463   1.157       .  T
C1462      N1464   1.157       .  T
C1467      C1468   1.408       .  A
C1467      C1472   1.407       .  A
C1468      C1469   1.413       .  A
C1468      C1473   1.451       .  S
C1469      C1470   1.416       .  A
C1469      C1476   1.448       .  S
C1470      C1471   1.421       .  A
C1471      C1472   1.404       .  A
C1471      C1474   1.454       .  S
C1472      C1475   1.453       .  S
C1473      N1480   1.157       .  T
C1474      N1479   1.157       .  T
C1475      N1477   1.157       .  T
C1476      N1478   1.157       .  T
C1481      C1482   1.430       .  A
C1481      C1486   1.428       .  A
C1482      C1483   1.414       .  A
C1482      C1487   1.451       .  S
C1483      C1484   1.406       .  A
C1483      C1490   1.453       .  S
C1484      C1485   1.407       .  A
C1485      C1486   1.412       .  A
C1485      C1488   1.453       .  S
C1486      C1489   1.452       .  S
C1487      N1494   1.158       .  T
C1488      N1493   1.158       .  T
C1489      N1491   1.158       .  T
C1490      N1492   1.157       .  T
C1495      C1496   1.410       .  A
C1495      C1500   1.415       .  A
C1496      C1497   1.417       .  A
C1496      C1501   1.454       .  S
C1497      C1498   1.431       .  A
C1497      C1504   1.449       .  S
C1498      C1499   1.424       .  A
C1499      C1500   1.416       .  A
C1499      C1502   1.449       .  S
C1500      C1503   1.455       .  S
C1501      N1508   1.158       .  T
C1502      N1507   1.157       .  T
C1503      N1505   1.158       .  T
C1504      N1506   1.157       .  T
C1509      C1510   1.411       .  A
C1509      C1514   1.412       .  A
C1510      C1511   1.417       .  A
C1510      C1515   1.451       .  S
C1511      C1512   1.422       .  A
C1511      C1518   1.450       .  S
C1512      C1513   1.422       .  A
C1513      C1514   1.414       .  A
C1513      C1516   1.447       .  S
C1514      C1517   1.455       .  S
C1515      N1522   1.157   1_455  T
C1516      N1521   1.157       .  T
C1517      N1519   1.157       .  T
C1518      N1520   1.157       .  T
C1523      C1524   1.424       .  A
C1523      C1528   1.425       .  A
C1524      C1525   1.422       .  A
C1524      C1529   1.451       .  S
C1525      C1526   1.415       .  A
C1525      C1532   1.451       .  S
C1526      C1527   1.415       .  A
C1527      C1528   1.416       .  A
C1527      C1530   1.455       .  S
C1528      C1531   1.448       .  S
C1529      N1536   1.157       .  T
C1530      N1535   1.157       .  T
C1531      N1533   1.158       .  T
C1532      N1534   1.157   1_655  T
C1537      C1538   1.412       .  A
C1537      C1542   1.417       .  A
C1538      C1539   1.415       .  A
C1538      C1543   1.449       .  S
C1539      C1540   1.418       .  A
C1539      C1546   1.452       .  S
C1540      C1541   1.416       .  A
C1541      C1542   1.415       .  A
C1541      C1544   1.452       .  S
C1542      C1545   1.452       .  S
C1543      N1550   1.157       .  T
C1544      N1549   1.158       .  T
C1545      N1547   1.157       .  T
C1546      N1548   1.157       .  T
C1551      C1552   1.413       .  A
C1551      C1556   1.414       .  A
C1552      C1553   1.414       .  A
C1552      C1557   1.450       .  S
C1553      C1554   1.411       .  A
C1553      C1560   1.450       .  S
C1554      C1555   1.412       .  A
C1555      C1556   1.416       .  A
C1555      C1558   1.450       .  S
C1556      C1559   1.450       .  S
C1557      N1564   1.157       .  T
C1558      N1563   1.157       .  T
C1559      N1561   1.157       .  T
C1560      N1562   1.157       .  T
C1565      C1566   1.412       .  A
C1565      C1570   1.419       .  A
C1566      C1567   1.414       .  A
C1566      C1571   1.450       .  S
C1567      C1568   1.416       .  A
C1567      C1574   1.452       .  S
C1568      C1569   1.411       .  A
C1569      C1570   1.413       .  A
C1569      C1572   1.450       .  S
C1570      C1573   1.452       .  S
C1571      N1578   1.157       .  T
C1572      N1577   1.157       .  T
C1573      N1575   1.157       .  T
C1574      N1576   1.157       .  T
C1579      C1580   1.410       .  A
C1579      C1584   1.409       .  A
C1580      C1581   1.409       .  A
C1580      C1585   1.456       .  S
C1581      C1582   1.426       .  A
C1581      C1588   1.453       .  S
C1582      C1583   1.425       .  A
C1583      C1584   1.419       .  A
C1583      C1586   1.447       .  S
C1584      C1587   1.453       .  S
C1585      N1592   1.158       .  T
C1586      N1591   1.158       .  T
C1587      N1589   1.158       .  T
C1588      N1590   1.157       .  T
C1593      C1594   1.410       .  A
C1593      C1598   1.416       .  A
C1594      C1595   1.415       .  A
C1594      C1599   1.452       .  S
C1595      C1596   1.421       .  A
C1595      C1602   1.449       .  S
C1596      C1597   1.415       .  A
C1597      C1598   1.416       .  A
C1597      C1600   1.447       .  S
C1598      C1601   1.453       .  S
C1599      N1606   1.157       .  T
C1600      N1605   1.157       .  T
C1601      N1603   1.157       .  T
C1602      N1604   1.157       .  T
C1607      C1608   1.422       .  A
C1607      C1612   1.432       .  A
C1608      C1609   1.415       .  A
C1608      C1613   1.451       .  S
C1609      C1610   1.412       .  A
C1609      C1616   1.452       .  S
C1610      C1611   1.406       .  A
C1611      C1612   1.410       .  A
C1611      C1614   1.455       .  S
C1612      C1615   1.454       .  S
C1613      N1620   1.158       .  T
C1614      N1619   1.158       .  T
C1615      N1617   1.158       .  T
C1616      N1618   1.157       .  T
C1621      C1622   1.410       .  A
C1621      C1626   1.406       .  A
C1622      C1623   1.413       .  A
C1622      C1627   1.451       .  S
C1623      C1624   1.421       .  A
C1623      C1630   1.449       .  S
C1624      C1625   1.427       .  A
C1625      C1626   1.413       .  A
C1625      C1628   1.448       .  S
C1626      C1629   1.454       .  S
C1627      N1634   1.157       .  T
C1628      N1633   1.156       .  T
C1629      N1631   1.157       .  T
C1630      N1632   1.157       .  T
C1635      C1636   1.411       .  A
C1635      C1640   1.404       .  A
C1636      C1637   1.417       .  A
C1636      C1641   1.450       .  S
C1637      C1638   1.426       .  A
C1637      C1644   1.448       .  S
C1638      C1639   1.432       .  A
C1639      C1640   1.410       .  A
C1639      C1642   1.450       .  S
C1640      C1643   1.453       .  S
C1641      N1648   1.157       .  T
C1642      N1647   1.157       .  T
C1643      N1645   1.157       .  T
C1644      N1646   1.158       .  T
C1649      C1650   1.417       .  A
C1649      C1654   1.425       .  A
C1650      C1651   1.417       .  A
C1650      C1655   1.450       .  S
C1651      C1652   1.419       .  A
C1651      C1658   1.453       .  S
C1652      C1653   1.410       .  A
C1653      C1654   1.417       .  A
C1653      C1656   1.453       .  S
C1654      C1657   1.446       .  S
C1655      N1662   1.157       .  T
C1656      N1661   1.157       .  T
C1657      N1659   1.156       .  T
C1658      N1660   1.158       .  T
C1663      C1664   1.411       .  A
C1663      C1668   1.415       .  A
C1664      C1665   1.419       .  A
C1664      C1669   1.450       .  S
C1665      C1666   1.423       .  A
C1665      C1672   1.450       .  S
C1666      C1667   1.422       .  A
C1667      C1668   1.416       .  A
C1667      C1670   1.447       .  S
C1668      C1671   1.455       .  S
C1669      N1676   1.157       .  T
C1670      N1675   1.157       .  T
C1671      N1673   1.158       .  T
C1672      N1674   1.157       .  T
C1677      C1678   1.426       .  A
C1677      C1682   1.438       .  A
C1678      C1679   1.416       .  A
C1678      C1683   1.446       .  S
C1679      C1680   1.407       .  A
C1679      C1686   1.453       .  S
C1680      C1681   1.400       .  A
C1681      C1682   1.407       .  A
C1681      C1684   1.455       .  S
C1682      C1685   1.453       .  S
C1683      N1690   1.157       .  T
C1684      N1689   1.157       .  T
C1685      N1687   1.157       .  T
C1686      N1688   1.157   1_545  T
C1691      C1692   1.422       .  A
C1691      C1696   1.417       .  A
C1692      C1693   1.416       .  A
C1692      C1697   1.454       .  S
C1693      C1694   1.423       .  A
C1693      C1700   1.451       .  S
C1694      C1695   1.427       .  A
C1695      C1696   1.420       .  A
C1695      C1698   1.451       .  S
C1696      C1699   1.452   1_455  S
C1697      N1704   1.158       .  T
C1698      N1703   1.157       .  T
C1699      N1701   1.157       .  T
C1700      N1702   1.157       .  T
C1705      C1706   1.423       .  A
C1705      C1710   1.421       .  A
C1706      C1707   1.419       .  A
C1706      C1711   1.450       .  S
C1707      C1708   1.410       .  A
C1707      C1714   1.450       .  S
C1708      C1709   1.413       .  A
C1709      C1710   1.413       .  A
C1709      C1712   1.456       .  S
C1710      C1713   1.447       .  S
C1711      N1718   1.157       .  T
C1712      N1717   1.158       .  T
C1713      N1715   1.157       .  T
C1714      N1716   1.157   1_554  T
C1719      C1720   1.420       .  A
C1719      C1724   1.422       .  A
C1720      C1721   1.415       .  A
C1720      C1725   1.450       .  S
C1721      C1722   1.413       .  A
C1721      C1728   1.452       .  S
C1722      C1723   1.417       .  A
C1723      C1724   1.414       .  A
C1723      C1726   1.455       .  S
C1724      C1727   1.449       .  S
C1725      N1732   1.157       .  T
C1726      N1731   1.158       .  T
C1727      N1729   1.158       .  T
C1728      N1730   1.157   1_655  T
C1733      C1734   1.423       .  A
C1733      C1738   1.422       .  A
C1734      C1735   1.413       .  A
C1734      C1739   1.448       .  S
C1735      C1736   1.410       .  A
C1735      C1742   1.452       .  S
C1736      C1737   1.412       .  A
C1737      C1738   1.415       .  A
C1737      C1740   1.451   1_565  S
C1738      C1741   1.451       .  S
C1739      N1746   1.157       .  T
C1740      N1745   1.157       .  T
C1741      N1743   1.157       .  T
C1742      N1744   1.157       .  T
C1747      C1748   1.405       .  A
C1747      C1752   1.415       .  A
C1748      C1749   1.410       .  A
C1748      C1753   1.450       .  S
C1749      C1750   1.428       .  A
C1749      C1756   1.454       .  S
C1750      C1751   1.415       .  A
C1751      C1752   1.410       .  A
C1751      C1754   1.452       .  S
C1752      C1755   1.450       .  S
C1753      N1760   1.157       .  T
C1754      N1759   1.157       .  T
C1755      N1757   1.156       .  T
C1756      N1758   1.158       .  T
C1761      C1762   1.423       .  A
C1761      C1766   1.421       .  A
C1762      C1763   1.417       .  A
C1762      C1767   1.452       .  S
C1763      C1764   1.415       .  A
C1763      C1770   1.451       .  S
C1764      C1765   1.416       .  A
C1765      C1766   1.414       .  A
C1765      C1768   1.455       .  S
C1766      C1769   1.448       .  S
C1767      N1774   1.157       .  T
C1768      N1773   1.158       .  T
C1769      N1771   1.157       .  T
C1770      N1772   1.157   1_556  T
C1775      C1776   1.437       .  A
C1775      C1780   1.434       .  A
C1776      C1777   1.413       .  A
C1776      C1781   1.450       .  S
C1777      C1778   1.407       .  A
C1777      C1784   1.455       .  S
C1778      C1779   1.410       .  A
C1779      C1780   1.417       .  A
C1779      C1782   1.456       .  S
C1780      C1783   1.447       .  S
C1781      N1788   1.157       .  T
C1782      N1787   1.158       .  T
C1783      N1785   1.157       .  T
C1784      N1786   1.157   1_556  T
C1789      C1790   1.422       .  A
C1789      C1794   1.427       .  A
C1790      C1791   1.411       .  A
C1790      C1795   1.450       .  S
C1791      C1792   1.406       .  A
C1791      C1798   1.448       .  S
C1792      C1793   1.401       .  A
C1793      C1794   1.406       .  A
C1793      C1796   1.452       .  S
C1794      C1797   1.448       .  S
C1795      N1802   1.158       .  T
C1796      N1801   1.156       .  T
C1797      N1799   1.156       .  T
C1798      N1800   1.156   1_545  T
C1803      C1804   1.410       .  A
C1803      C1808   1.413       .  A
C1804      C1805   1.416       .  A
C1804      C1809   1.451       .  S
C1805      C1806   1.419       .  A
C1805      C1812   1.449       .  S
C1806      C1807   1.416       .  A
C1807      C1808   1.415       .  A
C1807      C1810   1.448       .  S
C1808      C1811   1.453       .  S
C1809      N1816   1.157       .  T
C1810      N1815   1.157       .  T
C1811      N1813   1.157       .  T
C1812      N1814   1.157       .  T
C1817      C1818   1.415       .  A
C1817      C1822   1.421       .  A
C1818      C1819   1.412       .  A
C1818      C1823   1.449       .  S
C1819      C1820   1.416       .  A
C1819      C1826   1.453       .  S
C1820      C1821   1.409       .  A
C1821      C1822   1.409       .  A
C1821      C1824   1.452       .  S
C1822      C1825   1.451       .  S
C1823      N1830   1.158       .  T
C1824      N1829   1.157       .  T
C1825      N1827   1.157       .  T
C1826      N1828   1.157       .  T
C1831      C1832   1.412       .  A
C1831      C1836   1.413       .  A
C1832      C1833   1.421       .  A
C1832      C1837   1.455       .  S
C1833      C1834   1.438       .  A
C1833      C1840   1.448       .  S
C1834      C1835   1.432       .  A
C1835      C1836   1.413       .  A
C1835      C1838   1.453       .  S
C1836      C1839   1.454       .  S
C1837      N1844   1.158       .  T
C1838      N1843   1.158       .  T
C1839      N1841   1.157   1_556  T
C1840      N1842   1.158       .  T
C1845      C1846   1.415       .  A
C1845      C1850   1.410       .  A
C1846      C1847   1.416       .  A
C1846      C1851   1.453       .  S
C1847      C1848   1.420       .  A
C1847      C1854   1.448       .  S
C1848      C1849   1.424       .  A
C1849      C1850   1.413       .  A
C1849      C1852   1.452       .  S
C1850      C1853   1.452       .  S
C1851      N1858   1.157       .  T
C1852      N1857   1.157       .  T
C1853      N1855   1.157       .  T
C1854      N1856   1.158       .  T
C1859      C1860   1.426       .  A
C1859      C1864   1.416       .  A
C1860      C1861   1.410       .  A
C1860      C1865   1.453       .  S
C1861      C1862   1.404       .  A
C1861      C1868   1.451       .  S
C1862      C1863   1.415       .  A
C1863      C1864   1.409       .  A
C1863      C1866   1.453       .  S
C1864      C1867   1.451       .  S
C1865      N1872   1.158       .  T
C1866      N1871   1.157       .  T
C1867      N1869   1.157       .  T
C1868      N1870   1.157       .  T
C1873      C1874   1.409       .  A
C1873      C1878   1.415       .  A
C1874      C1875   1.415       .  A
C1874      C1879   1.454       .  S
C1875      C1876   1.425       .  A
C1875      C1882   1.448       .  S
C1876      C1877   1.419       .  A
C1877      C1878   1.414       .  A
C1877      C1880   1.449       .  S
C1878      C1881   1.454       .  S
C1879      N1886   1.157       .  T
C1880      N1885   1.157       .  T
C1881      N1883   1.158       .  T
C1882      N1884   1.156       .  T
C1887      C1888   1.413       .  A
C1887      C1892   1.413       .  A
C1888      C1889   1.414       .  A
C1888      C1893   1.451       .  S
C1889      C1890   1.412       .  A
C1889      C1896   1.450       .  S
C1890      C1891   1.411       .  A
C1891      C1892   1.412       .  A
C1891      C1894   1.450       .  S
C1892      C1895   1.451       .  S
C1893      N1900   1.157       .  T
C1894      N1899   1.157       .  T
C1895      N1897   1.157       .  T
C1896      N1898   1.157       .  T
C1901      C1902   1.427       .  A
C1901      C1906   1.416       .  A
C1902      C1903   1.413       .  A
C1902      C1907   1.453       .  S
C1903      C1904   1.405       .  A
C1903      C1910   1.451       .  S
C1904      C1905   1.416       .  A
C1905      C1906   1.412       .  A
C1905      C1908   1.453       .  S
C1906      C1909   1.451       .  S
C1907      N1914   1.158       .  T
C1908      N1913   1.157       .  T
C1909      N1911   1.157       .  T
C1910      N1912   1.157       .  T
C1915      C1916   1.410       .  A
C1915      C1920   1.409       .  A
C1916      C1917   1.406       .  A
C1916      C1921   1.455       .  S
C1917      C1918   1.423       .  A
C1917      C1924   1.454       .  S
C1918      C1919   1.424       .  A
C1919      C1920   1.418       .  A
C1919      C1922   1.447       .  S
C1920      C1923   1.452       .  S
C1921      N1928   1.158       .  T
C1922      N1927   1.158       .  T
C1923      N1925   1.157       .  T
C1924      N1926   1.157       .  T
C1929      C1930   1.413       .  A
C1929      C1934   1.408       .  A
C1930      C1931   1.416       .  A
C1930      C1935   1.451       .  S
C1931      C1932   1.420       .  A
C1931      C1938   1.450       .  S
C1932      C1933   1.426       .  A
C1933      C1934   1.411       .  A
C1933      C1936   1.451       .  S
C1934      C1937   1.454       .  S
C1935      N1942   1.157       .  T
C1936      N1941   1.157       .  T
C1937      N1939   1.157       .  T
C1938      N1940   1.158       .  T
C1943      C1944   1.416       .  A
C1943      C1948   1.410       .  A
C1944      C1945   1.413       .  A
C1944      C1949   1.454       .  S
C1945      C1946   1.423       .  A
C1945      C1952   1.449       .  S
C1946      C1947   1.427       .  A
C1947      C1948   1.419       .  A
C1947      C1950   1.451       .  S
C1948      C1951   1.451       .  S
C1949      N1956   1.157       .  T
C1950      N1955   1.157       .  T
C1951      N1953   1.157   1_545  T
C1952      N1954   1.158       .  T
C1957      C1958   1.411       .  A
C1957      C1962   1.416       .  A
C1958      C1959   1.412       .  A
C1958      C1963   1.448       .  S
C1959      C1960   1.425       .  A
C1959      C1966   1.454       .  S
C1960      C1961   1.419       .  A
C1961      C1962   1.415       .  A
C1961      C1964   1.452       .  S
C1962      C1965   1.450       .  S
C1963      N1970   1.157       .  T
C1964      N1969   1.158       .  T
C1965      N1967   1.156       .  T
C1966      N1968   1.158       .  T
C1971      C1972   1.413       .  A
C1971      C1976   1.414       .  A
C1972      C1973   1.413       .  A
C1972      C1977   1.451       .  S
C1973      C1974   1.411       .  A
C1973      C1980   1.450       .  S
C1974      C1975   1.410       .  A
C1975      C1976   1.412       .  A
C1975      C1978   1.451       .  S
C1976      C1979   1.451       .  S
C1977      N1984   1.157       .  T
C1978      N1983   1.157       .  T
C1979      N1981   1.157       .  T
C1980      N1982   1.157       .  T
C1985      C1986   1.440       .  A
C1985      C1990   1.430       .  A
C1986      C1987   1.417       .  A
C1986      C1991   1.446       .  S
C1987      C1988   1.400       .  A
C1987      C1994   1.456       .  S
C1988      C1989   1.404       .  A
C1989      C1990   1.414       .  A
C1989      C1992   1.452       .  S
C1990      C1993   1.449       .  S
C1991      N1998   1.158       .  T
C1992      N1997   1.157       .  T
C1993      N1995   1.158       .  T
C1994      N1996   1.157       .  T
C1999      C2000   1.424       .  A
C1999      C2004   1.430       .  A
C2000      C2001   1.405       .  A
C2000      C2005   1.449       .  S
C2001      C2002   1.409       .  A
C2001      C2008   1.455       .  S
C2002      C2003   1.411       .  A
C2003      C2004   1.414       .  A
C2003      C2006   1.453       .  S
C2004      C2007   1.452       .  S
C2005      N2012   1.157       .  T
C2006      N2011   1.157       .  T
C2007      N2009   1.157       .  T
C2008      N2010   1.157       .  T
C2013      C2014   1.425       .  A
C2013      C2018   1.418       .  A
C2014      C2015   1.416       .  A
C2014      C2019   1.451       .  S
C2015      C2016   1.410       .  A
C2015      C2022   1.452       .  S
C2016      C2017   1.410       .  A
C2017      C2018   1.411       .  A
C2017      C2020   1.451       .  S
C2018      C2021   1.450       .  S
C2019      N2026   1.158       .  T
C2020      N2025   1.157       .  T
C2021      N2023   1.157       .  T
C2022      N2024   1.157   1_554  T
C2027      C2028   1.424       .  A
C2027      C2032   1.421       .  A
C2028      C2029   1.409       .  A
C2028      C2033   1.448       .  S
C2029      C2030   1.411       .  A
C2029      C2036   1.454       .  S
C2030      C2031   1.415       .  A
C2031      C2032   1.417       .  A
C2031      C2034   1.452       .  S
C2032      C2035   1.449       .  S
C2033      N2040   1.156       .  T
C2034      N2039   1.158   1_554  T
C2035      N2037   1.158       .  T
C2036      N2038   1.158       .  T
C2041      C2042   1.424       .  A
C2041      C2046   1.427       .  A
C2042      C2043   1.416       .  A
C2042      C2047   1.451       .  S
C2043      C2044   1.412       .  A
C2043      C2050   1.448       .  S
C2044      C2045   1.421       .  A
C2045      C2046   1.417       .  A
C2045      C2048   1.455       .  S
C2046      C2049   1.450       .  S
C2047      N2054   1.157       .  T
C2048      N2053   1.157       .  T
C2049      N2051   1.158       .  T
C2050      N2052   1.157       .  T
C2055      C2056   1.422       .  A
C2055      C2060   1.431       .  A
C2056      C2057   1.415       .  A
C2056      C2061   1.445       .  S
C2057      C2058   1.410       .  A
C2057      C2064   1.451       .  S
C2058      C2059   1.407       .  A
C2059      C2060   1.410       .  A
C2059      C2062   1.453       .  S
C2060      C2063   1.452       .  S
C2061      N2068   1.157       .  T
C2062      N2067   1.157       .  T
C2063      N2065   1.157       .  T
C2064      N2066   1.157       .  T
C2069      C2070   1.422       .  A
C2069      C2074   1.418       .  A
C2070      C2071   1.416       .  A
C2070      C2075   1.452       .  S
C2071      C2072   1.413       .  A
C2071      C2078   1.452       .  S
C2072      C2073   1.415       .  A
C2073      C2074   1.418       .  A
C2073      C2076   1.451       .  S
C2074      C2077   1.448       .  S
C2075      N2082   1.157       .  T
C2076      N2081   1.157       .  T
C2077      N2079   1.157       .  T
C2078      N2080   1.157       .  T
C2083      C2084   1.419       .  A
C2083      C2088   1.412       .  A
C2084      C2085   1.416       .  A
C2084      C2089   1.452       .  S
C2085      C2086   1.413       .  A
C2085      C2092   1.448       .  S
C2086      C2087   1.418       .  A
C2087      C2088   1.415       .  A
C2087      C2090   1.451       .  S
C2088      C2091   1.450       .  S
C2089      N2096   1.157       .  T
C2090      N2095   1.157   1_565  T
C2091      N2093   1.157       .  T
C2092      N2094   1.156   1_556  T
C2097      C2098   1.425       .  A
C2097      C2102   1.429       .  A
C2098      C2099   1.416       .  A
C2098      C2103   1.451       .  S
C2099      C2100   1.410       .  A
C2099      C2106   1.452       .  S
C2100      C2101   1.406       .  A
C2101      C2102   1.412       .  A
C2101      C2104   1.452       .  S
C2102      C2105   1.453       .  S
C2103      N2110   1.158       .  T
C2104      N2109   1.157       .  T
C2105      N2107   1.158       .  T
C2106      N2108   1.157       .  T
C2111      C2112   1.429       .  A
C2111      C2116   1.421       .  A
C2112      C2113   1.410       .  A
C2112      C2117   1.454       .  S
C2113      C2114   1.412       .  A
C2113      C2120   1.454       .  S
C2114      C2115   1.411       .  A
C2115      C2116   1.415       .  A
C2115      C2118   1.451       .  S
C2116      C2119   1.447       .  S
C2117      N2124   1.157       .  T
C2118      N2123   1.157       .  T
C2119      N2121   1.158       .  T
C2120      N2122   1.158       .  T
C2125      C2126   1.410       .  A
C2125      C2130   1.410       .  A
C2126      C2127   1.416       .  A
C2126      C2131   1.457       .  S
C2127      C2128   1.434       .  A
C2127      C2134   1.447       .  S
C2128      C2129   1.435       .  A
C2129      C2130   1.410       .  A
C2129      C2132   1.453       .  S
C2130      C2133   1.456       .  S
C2131      N2138   1.158       .  T
C2132      N2137   1.157       .  T
C2133      N2135   1.158   1_554  T
C2134      N2136   1.158       .  T
C2139      C2140   1.419       .  A
C2139      C2144   1.421       .  A
C2140      C2141   1.412       .  A
C2140      C2145   1.448       .  S
C2141      C2142   1.413       .  A
C2141      C2148   1.455       .  S
C2142      C2143   1.411       .  A
C2143      C2144   1.416       .  A
C2143      C2146   1.451       .  S
C2144      C2147   1.451       .  S
C2145      N2152   1.157       .  T
C2146      N2151   1.157       .  T
C2147      N2149   1.157       .  T
C2148      N2150   1.158       .  T
C2153      C2154   1.408       .  A
C2153      C2158   1.411       .  A
C2154      C2155   1.412       .  A
C2154      C2159   1.451       .  S
C2155      C2156   1.424       .  A
C2155      C2162   1.452       .  S
C2156      C2157   1.424       .  A
C2157      C2158   1.413       .  A
C2157      C2160   1.451       .  S
C2158      C2161   1.453       .  S
C2159      N2166   1.157       .  T
C2160      N2165   1.158       .  T
C2161      N2163   1.157       .  T
C2162      N2164   1.158       .  T
C2167      C2168   1.404       .  A
C2167      C2172   1.410       .  A
C2168      C2169   1.403       .  A
C2168      C2173   1.451       .  S
C2169      C2170   1.425       .  A
C2169      C2176   1.454       .  S
C2170      C2171   1.426       .  A
C2171      C2172   1.421       .  A
C2171      C2174   1.447       .  S
C2172      C2175   1.452       .  S
C2173      N2180   1.156       .  T
C2174      N2179   1.158       .  T
C2175      N2177   1.157       .  T
C2176      N2178   1.157       .  T
C2181      C2182   1.427       .  A
C2181      C2186   1.416       .  A
C2182      C2183   1.414       .  A
C2182      C2187   1.452       .  S
C2183      C2184   1.405       .  A
C2183      C2190   1.452       .  S
C2184      C2185   1.416       .  A
C2185      C2186   1.412       .  A
C2185      C2188   1.452       .  S
C2186      C2189   1.451       .  S
C2187      N2194   1.158       .  T
C2188      N2193   1.157       .  T
C2189      N2191   1.157       .  T
C2190      N2192   1.157       .  T
C2195      C2196   1.400       .  A
C2195      C2200   1.407       .  A
C2196      C2197   1.405       .  A
C2196      C2201   1.451       .  S
C2197      C2198   1.434       .  A
C2197      C2204   1.455       .  S
C2198      C2199   1.427       .  A
C2199      C2200   1.418       .  A
C2199      C2202   1.446       .  S
C2200      C2203   1.452   1_565  S
C2201      N2208   1.156       .  T
C2202      N2207   1.157       .  T
C2203      N2205   1.157       .  T
C2204      N2206   1.157       .  T
C2209      C2210   1.417       .  A
C2209      C2214   1.413       .  A
C2210      C2211   1.417       .  A
C2210      C2215   1.451       .  S
C2211      C2212   1.415       .  A
C2211      C2218   1.448       .  S
C2212      C2213   1.421       .  A
C2213      C2214   1.414       .  A
C2213      C2216   1.452       .  S
C2214      C2217   1.451       .  S
C2215      N2222   1.157       .  T
C2216      N2221   1.157       .  T
C2217      N2219   1.157       .  T
C2218      N2220   1.157       .  T
C2223      C2224   1.416       .  A
C2223      C2228   1.414       .  A
C2224      C2225   1.413       .  A
C2224      C2229   1.454       .  S
C2225      C2226   1.415       .  A
C2225      C2232   1.447       .  S
C2226      C2227   1.419       .  A
C2227      C2228   1.419       .  A
C2227      C2230   1.450       .  S
C2228      C2231   1.450       .  S
C2229      N2236   1.157       .  T
C2230      N2235   1.157       .  T
C2231      N2233   1.157       .  T
C2232      N2234   1.156       .  T
C2237      C2238   1.413       .  A
C2237      C2242   1.417       .  A
C2238      C2239   1.407       .  A
C2238      C2243   1.451       .  S
C2239      C2240   1.409       .  A
C2239      C2246   1.449       .  S
C2240      C2241   1.407       .  A
C2241      C2242   1.412       .  A
C2241      C2244   1.450       .  S
C2242      C2245   1.449       .  S
C2243      N2250   1.157       .  T
C2244      N2249   1.157       .  T
C2245      N2247   1.157       .  T
C2246      N2248   1.156       .  T
C2251      C2252   1.422       .  A
C2251      C2256   1.430       .  A
C2252      C2253   1.414       .  A
C2252      C2257   1.447       .  S
C2253      C2254   1.411       .  A
C2253      C2260   1.454       .  S
C2254      C2255   1.406       .  A
C2255      C2256   1.410       .  A
C2255      C2258   1.453       .  S
C2256      C2259   1.452       .  S
C2257      N2264   1.158       .  T
C2258      N2263   1.157       .  T
C2259      N2261   1.157       .  T
C2260      N2262   1.157       .  T
C2265      C2266   1.412       .  A
C2265      C2270   1.412       .  A
C2266      C2267   1.417       .  A
C2266      C2271   1.452       .  S
C2267      C2268   1.425       .  A
C2267      C2274   1.448       .  S
C2268      C2269   1.423       .  A
C2269      C2270   1.409       .  A
C2269      C2272   1.447       .  S
C2270      C2273   1.454       .  S
C2271      N2278   1.157       .  T
C2272      N2277   1.156       .  T
C2273      N2275   1.157       .  T
C2274      N2276   1.158       .  T
C2279      C2280   1.413       .  A
C2279      C2284   1.413       .  A
C2280      C2281   1.420       .  A
C2280      C2285   1.450       .  S
C2281      C2282   1.423       .  A
C2281      C2288   1.450       .  S
C2282      C2283   1.419       .  A
C2283      C2284   1.415       .  A
C2283      C2286   1.447       .  S
C2284      C2287   1.452       .  S
C2285      N2292   1.157       .  T
C2286      N2291   1.157       .  T
C2287      N2289   1.157       .  T
C2288      N2290   1.157       .  T
C2293      C2294   1.421       .  A
C2293      C2298   1.418       .  A
C2294      C2295   1.405       .  A
C2294      C2299   1.454       .  S
C2295      C2296   1.408       .  A
C2295      C2302   1.450       .  S
C2296      C2297   1.411       .  A
C2297      C2298   1.417       .  A
C2297      C2300   1.446       .  S
C2298      C2301   1.450       .  S
C2299      N2306   1.158       .  T
C2300      N2305   1.156       .  T
C2301      N2303   1.158       .  T
C2302      N2304   1.157       .  T
C2307      C2308   1.409       .  A
C2307      C2312   1.412       .  A
C2308      C2309   1.408       .  A
C2308      C2313   1.454       .  S
C2309      C2310   1.422       .  A
C2309      C2316   1.453       .  S
C2310      C2311   1.417       .  A
C2311      C2312   1.414       .  A
C2311      C2314   1.450       .  S
C2312      C2315   1.451       .  S
C2313      N2320   1.157       .  T
C2314      N2319   1.157       .  T
C2315      N2317   1.157       .  T
C2316      N2318   1.157       .  T
C2321      C2322   1.427       .  A
C2321      C2326   1.428       .  A
C2322      C2323   1.417       .  A
C2322      C2327   1.451       .  S
C2323      C2324   1.412       .  A
C2323      C2330   1.453       .  S
C2324      C2325   1.414       .  A
C2325      C2326   1.418       .  A
C2325      C2328   1.455       .  S
C2326      C2329   1.448       .  S
C2327      N2334   1.157       .  T
C2328      N2333   1.158       .  T
C2329      N2331   1.158       .  T
C2330      N2332   1.157       .  T
C2335      C2336   1.410       .  A
C2335      C2340   1.409       .  A
C2336      C2337   1.411       .  A
C2336      C2341   1.450       .  S
C2337      C2338   1.422       .  A
C2337      C2344   1.452       .  S
C2338      C2339   1.423       .  A
C2339      C2340   1.415       .  A
C2339      C2342   1.451       .  S
C2340      C2343   1.448       .  S
C2341      N2348   1.156       .  T
C2342      N2347   1.157       .  T
C2343      N2345   1.156       .  T
C2344      N2346   1.157       .  T
C2349      C2350   1.420       .  A
C2349      C2354   1.414       .  A
C2350      C2351   1.415       .  A
C2350      C2355   1.452       .  S
C2351      C2352   1.413       .  A
C2351      C2358   1.451       .  S
C2352      C2353   1.414       .  A
C2353      C2354   1.414       .  A
C2353      C2356   1.452       .  S
C2354      C2357   1.449       .  S
C2355      N2362   1.157       .  T
C2356      N2361   1.157       .  T
C2357      N2359   1.157       .  T
C2358      N2360   1.157       .  T
C2363      C2364   1.426       .  A
C2363      C2368   1.425       .  A
C2364      C2365   1.412       .  A
C2364      C2369   1.448       .  S
C2365      C2366   1.411       .  A
C2365      C2372   1.456       .  S
C2366      C2367   1.409       .  A
C2367      C2368   1.416       .  A
C2367      C2370   1.450       .  S
C2368      C2371   1.451       .  S
C2369      N2376   1.158       .  T
C2370      N2375   1.157       .  T
C2371      N2373   1.158       .  T
C2372      N2374   1.158       .  T
C2377      C2378   1.425       .  A
C2377      C2382   1.424       .  A
C2378      C2379   1.412       .  A
C2378      C2383   1.448       .  S
C2379      C2380   1.411       .  A
C2379      C2386   1.456       .  S
C2380      C2381   1.409       .  A
C2381      C2382   1.418       .  A
C2381      C2384   1.450       .  S
C2382      C2385   1.450       .  S
C2383      N2390   1.158       .  T
C2384      N2389   1.157       .  T
C2385      N2387   1.157       .  T
C2386      N2388   1.158       .  T
C2391      C2392   1.437       .  A
C2391      C2396   1.430       .  A
C2392      C2393   1.411       .  A
C2392      C2397   1.454       .  S
C2393      C2394   1.405       .  A
C2393      C2400   1.455       .  S
C2394      C2395   1.410       .  A
C2395      C2396   1.416       .  A
C2395      C2398   1.454       .  S
C2396      C2399   1.448       .  S
C2397      N2404   1.157       .  T
C2398      N2403   1.157       .  T
C2399      N2401   1.158       .  T
C2400      N2402   1.157       .  T
C2405      C2406   1.413       .  A
C2405      C2410   1.407       .  A
C2406      C2407   1.417       .  A
C2406      C2411   1.452       .  S
C2407      C2408   1.419       .  A
C2407      C2414   1.449       .  S
C2408      C2409   1.423       .  A
C2409      C2410   1.412       .  A
C2409      C2412   1.446       .  S
C2410      C2413   1.453       .  S
C2411      N2418   1.157       .  T
C2412      N2417   1.156       .  T
C2413      N2415   1.157       .  T
C2414      N2416   1.157       .  T
C2419      C2420   1.419       .  A
C2419      C2424   1.422       .  A
C2420      C2421   1.411       .  A
C2420      C2425   1.446       .  S
C2421      C2422   1.410       .  A
C2421      C2428   1.453       .  S
C2422      C2423   1.411       .  A
C2423      C2424   1.419       .  A
C2423      C2426   1.450       .  S
C2424      C2427   1.450       .  S
C2425      N2432   1.157       .  T
C2426      N2431   1.157       .  T
C2427      N2429   1.157       .  T
C2428      N2430   1.157       .  T
C2433      C2434   1.422       .  A
C2433      C2438   1.435       .  A
C2434      C2435   1.414       .  A
C2434      C2439   1.447       .  S
C2435      C2436   1.407       .  A
C2435      C2442   1.448       .  S
C2436      C2437   1.403       .  A
C2437      C2438   1.411       .  A
C2437      C2440   1.454       .  S
C2438      C2441   1.451       .  S
C2439      N2446   1.157       .  T
C2440      N2445   1.157       .  T
C2441      N2443   1.157       .  T
C2442      N2444   1.156       .  T
C2447      C2448   1.409       .  A
C2447      C2452   1.411       .  A
C2448      C2449   1.409       .  A
C2448      C2453   1.451       .  S
C2449      C2450   1.425       .  A
C2449      C2456   1.454       .  S
C2450      C2451   1.421       .  A
C2451      C2452   1.419       .  A
C2451      C2454   1.450       .  S
C2452      C2455   1.448       .  S
C2453      N2460   1.157       .  T
C2454      N2459   1.158       .  T
C2455      N2457   1.156       .  T
C2456      N2458   1.158       .  T
C2461      C2462   1.414       .  A
C2461      C2466   1.418       .  A
C2462      C2463   1.418       .  A
C2462      C2467   1.450       .  S
C2463      C2464   1.422       .  A
C2463      C2470   1.452       .  S
C2464      C2465   1.414       .  A
C2465      C2466   1.414       .  A
C2465      C2468   1.449       .  S
C2466      C2469   1.454       .  S
C2467      N2474   1.157       .  T
C2468      N2473   1.157       .  T
C2469      N2471   1.158       .  T
C2470      N2472   1.158       .  T
C2475      C2476   1.410       .  A
C2475      C2480   1.418       .  A
C2476      C2477   1.407       .  A
C2476      C2481   1.453       .  S
C2477      C2478   1.429       .  A
C2477      C2484   1.454       .  S
C2478      C2479   1.419       .  A
C2479      C2480   1.417       .  A
C2479      C2482   1.447       .  S
C2480      C2483   1.453       .  S
C2481      N2488   1.158       .  T
C2482      N2487   1.158       .  T
C2483      N2485   1.158       .  T
C2484      N2486   1.158       .  T
C2489      C2490   1.419       .  A
C2489      C2494   1.414       .  A
C2490      C2491   1.419       .  A
C2490      C2495   1.452       .  S
C2491      C2492   1.415       .  A
C2491      C2498   1.448       .  S
C2492      C2493   1.420       .  A
C2493      C2494   1.415       .  A
C2493      C2496   1.451       .  S
C2494      C2497   1.452       .  S
C2495      N2502   1.158       .  T
C2496      N2501   1.157       .  T
C2497      N2499   1.157       .  T
C2498      N2500   1.157       .  T
C2503      C2504   1.411       .  A
C2503      C2508   1.416       .  A
C2504      C2505   1.411       .  A
C2504      C2509   1.450       .  S
C2505      C2506   1.416       .  A
C2505      C2512   1.452       .  S
C2506      C2507   1.408       .  A
C2507      C2508   1.405       .  A
C2507      C2510   1.452       .  S
C2508      C2511   1.452       .  S
C2509      N2516   1.157       .  T
C2510      N2515   1.157       .  T
C2511      N2513   1.157       .  T
C2512      N2514   1.157       .  T
C2517      C2518   1.408       .  A
C2517      C2522   1.419       .  A
C2518      C2519   1.411       .  A
C2518      C2523   1.451       .  S
C2519      C2520   1.420       .  A
C2519      C2526   1.452       .  S
C2520      C2521   1.413       .  A
C2521      C2522   1.409       .  A
C2521      C2524   1.451       .  S
C2522      C2525   1.453       .  S
C2523      N2530   1.157       .  T
C2524      N2529   1.157       .  T
C2525      N2527   1.157       .  T
C2526      N2528   1.157       .  T
C2531      C2532   1.414       .  A
C2531      C2536   1.411       .  A
C2532      C2533   1.419       .  A
C2532      C2537   1.449       .  S
C2533      C2534   1.422       .  A
C2533      C2540   1.450       .  S
C2534      C2535   1.419       .  A
C2535      C2536   1.411       .  A
C2535      C2538   1.446       .  S
C2536      C2539   1.452       .  S
C2537      N2544   1.157       .  T
C2538      N2543   1.156       .  T
C2539      N2541   1.156       .  T
C2540      N2542   1.157       .  T
C2545      C2546   1.416       .  A
C2545      C2550   1.420       .  A
C2546      C2547   1.420       .  A
C2546      C2551   1.448       .  S
C2547      C2548   1.417       .  A
C2547      C2554   1.452       .  S
C2548      C2549   1.412       .  A
C2549      C2550   1.413       .  A
C2549      C2552   1.451       .  S
C2550      C2553   1.451       .  S
C2551      N2558   1.157       .  T
C2552      N2557   1.157       .  T
C2553      N2555   1.157       .  T
C2554      N2556   1.157       .  T
C2559      C2560   1.421       .  A
C2559      C2564   1.416       .  A
C2560      C2561   1.414       .  A
C2560      C2565   1.447       .  S
C2561      C2562   1.410       .  A
C2561      C2568   1.453       .  S
C2562      C2563   1.414       .  A
C2563      C2564   1.414       .  A
C2563      C2566   1.453       .  S
C2564      C2567   1.448       .  S
C2565      N2572   1.156       .  T
C2566      N2571   1.157       .  T
C2567      N2569   1.157       .  T
C2568      N2570   1.157       .  T
C2573      C2574   1.433       .  A
C2573      C2578   1.426       .  A
C2574      C2575   1.412       .  A
C2574      C2579   1.451       .  S
C2575      C2576   1.408       .  A
C2575      C2582   1.455       .  S
C2576      C2577   1.408       .  A
C2577      C2578   1.412       .  A
C2577      C2580   1.451       .  S
C2578      C2581   1.447       .  S
C2579      N2586   1.157       .  T
C2580      N2585   1.157       .  T
C2581      N2583   1.157       .  T
C2582      N2584   1.158       .  T
C2587      C2588   1.421       .  A
C2587      C2592   1.422       .  A
C2588      C2589   1.415       .  A
C2588      C2593   1.446       .  S
C2589      C2590   1.407       .  A
C2589      C2596   1.452       .  S
C2590      C2591   1.404       .  A
C2591      C2592   1.408       .  A
C2591      C2594   1.453       .  S
C2592      C2595   1.448       .  S
C2593      N2600   1.157       .  T
C2594      N2599   1.157       .  T
C2595      N2597   1.156       .  T
C2596      N2598   1.157       .  T
C2601      C2602   1.413       .  A
C2601      C2606   1.419       .  A
C2602      C2603   1.413       .  A
C2602      C2607   1.449       .  S
C2603      C2604   1.415       .  A
C2603      C2610   1.453       .  S
C2604      C2605   1.412       .  A
C2605      C2606   1.414       .  A
C2605      C2608   1.451       .  S
C2606      C2609   1.452       .  S
C2607      N2614   1.157       .  T
C2608      N2613   1.157       .  T
C2609      N2611   1.157       .  T
C2610      N2612   1.158       .  T
C2615      C2616   1.421       .  A
C2615      C2620   1.415       .  A
C2616      C2617   1.415       .  A
C2616      C2621   1.451       .  S
C2617      C2618   1.412       .  A
C2617      C2624   1.451       .  S
C2618      C2619   1.413       .  A
C2619      C2620   1.412       .  A
C2619      C2622   1.454       .  S
C2620      C2623   1.448       .  S
C2621      N2628   1.157       .  T
C2622      N2627   1.158       .  T
C2623      N2625   1.157       .  T
C2624      N2626   1.157   1_556  T
C2629      C2630   1.422       .  A
C2629      C2634   1.418       .  A
C2630      C2631   1.409       .  A
C2630      C2635   1.450       .  S
C2631      C2632   1.415       .  A
C2631      C2638   1.453       .  S
C2632      C2633   1.420       .  A
C2633      C2634   1.417       .  A
C2633      C2636   1.453       .  S
C2634      C2637   1.448       .  S
C2635      N2642   1.157       .  T
C2636      N2641   1.158   1_556  T
C2637      N2639   1.158       .  T
C2638      N2640   1.158       .  T
C2643      C2644   1.414       .  A
C2643      C2648   1.412       .  A
C2644      C2645   1.412       .  A
C2644      C2649   1.449       .  S
C2645      C2646   1.409       .  A
C2645      C2652   1.451       .  S
C2646      C2647   1.411       .  A
C2647      C2648   1.411       .  A
C2647      C2650   1.451       .  S
C2648      C2651   1.451       .  S
C2649      N2656   1.157       .  T
C2650      N2655   1.157       .  T
C2651      N2653   1.157       .  T
C2652      N2654   1.157       .  T
C2657      C2658   1.415       .  A
C2657      C2662   1.419       .  A
C2658      C2659   1.412       .  A
C2658      C2663   1.449       .  S
C2659      C2660   1.417       .  A
C2659      C2666   1.454       .  S
C2660      C2661   1.410       .  A
C2661      C2662   1.407       .  A
C2661      C2664   1.453       .  S
C2662      C2665   1.451       .  S
C2663      N2670   1.157       .  T
C2664      N2669   1.157       .  T
C2665      N2667   1.156       .  T
C2666      N2668   1.158       .  T
C2671      C2672   1.428       .  A
C2671      C2676   1.424       .  A
C2672      C2673   1.420       .  A
C2672      C2677   1.451       .  S
C2673      C2674   1.417       .  A
C2673      C2680   1.453       .  S
C2674      C2675   1.420       .  A
C2675      C2676   1.416       .  A
C2675      C2678   1.454       .  S
C2676      C2679   1.450       .  S
C2677      N2684   1.158       .  T
C2678      N2683   1.158       .  T
C2679      N2681   1.157       .  T
C2680      N2682   1.158       .  T
C2685      C2686   1.428       .  A
C2685      C2690   1.420       .  A
C2686      C2687   1.407       .  A
C2686      C2691   1.453       .  S
C2687      C2688   1.413       .  A
C2687      C2694   1.454       .  S
C2688      C2689   1.418       .  A
C2689      C2690   1.418       .  A
C2689      C2692   1.453       .  S
C2690      C2693   1.447       .  S
C2691      N2698   1.156       .  T
C2692      N2697   1.158       .  T
C2693      N2695   1.158       .  T
C2694      N2696   1.157       .  T
C2699      C2700   1.411       .  A
C2699      C2704   1.405       .  A
C2700      C2701   1.415       .  A
C2700      C2705   1.452       .  S
C2701      C2702   1.420       .  A
C2701      C2708   1.450       .  S
C2702      C2703   1.424       .  A
C2703      C2704   1.411       .  A
C2703      C2706   1.447       .  S
C2704      C2707   1.453       .  S
C2705      N2712   1.158       .  T
C2706      N2711   1.156       .  T
C2707      N2709   1.157       .  T
C2708      N2710   1.157       .  T
C2713      C2714   1.422       .  A
C2713      C2718   1.431       .  A
C2714      C2715   1.412       .  A
C2714      C2719   1.447       .  S
C2715      C2716   1.408       .  A
C2715      C2722   1.450       .  S
C2716      C2717   1.409       .  A
C2717      C2718   1.407       .  A
C2717      C2720   1.456       .  S
C2718      C2721   1.453       .  S
C2719      N2726   1.157       .  T
C2720      N2725   1.158       .  T
C2721      N2723   1.157       .  T
C2722      N2724   1.157       .  T
C2727      C2728   1.412       .  A
C2727      C2732   1.414       .  A
C2728      C2729   1.413       .  A
C2728      C2733   1.450       .  S
C2729      C2730   1.411       .  A
C2729      C2736   1.450       .  S
C2730      C2731   1.410       .  A
C2731      C2732   1.412       .  A
C2731      C2734   1.450       .  S
C2732      C2735   1.451       .  S
C2733      N2740   1.157       .  T
C2734      N2739   1.157       .  T
C2735      N2737   1.157       .  T
C2736      N2738   1.157       .  T
C2741      C2742   1.413       .  A
C2741      C2746   1.419       .  A
C2742      C2743   1.406       .  A
C2742      C2747   1.453       .  S
C2743      C2744   1.420       .  A
C2743      C2750   1.446       .  S
C2744      C2745   1.420       .  A
C2745      C2746   1.417       .  A
C2745      C2748   1.448       .  S
C2746      C2749   1.453   1_554  S
C2747      N2754   1.157       .  T
C2748      N2753   1.158       .  T
C2749      N2751   1.158       .  T
C2750      N2752   1.156       .  T
C2755      C2756   1.424       .  A
C2755      C2760   1.427       .  A
C2756      C2757   1.412       .  A
C2756      C2761   1.449       .  S
C2757      C2758   1.409       .  A
C2757      C2764   1.455       .  S
C2758      C2759   1.407       .  A
C2759      C2760   1.414       .  A
C2759      C2762   1.452       .  S
C2760      C2763   1.450       .  S
C2761      N2768   1.157       .  T
C2762      N2767   1.157   1_455  T
C2763      N2765   1.157       .  T
C2764      N2766   1.158       .  T
C2769      C2770   1.421       .  A
C2769      C2774   1.427       .  A
C2770      C2771   1.414       .  A
C2770      C2775   1.449       .  S
C2771      C2772   1.413       .  A
C2771      C2778   1.453       .  S
C2772      C2773   1.410       .  A
C2773      C2774   1.409       .  A
C2773      C2776   1.453       .  S
C2774      C2777   1.453       .  S
C2775      N2782   1.158       .  T
C2776      N2781   1.158       .  T
C2777      N2779   1.157       .  T
C2778      N2780   1.157   1_455  T
C2783      C2784   1.416       .  A
C2783      C2788   1.408       .  A
C2784      C2785   1.413       .  A
C2784      C2789   1.450       .  S
C2785      C2786   1.419       .  A
C2785      C2792   1.453       .  S
C2786      C2787   1.428       .  A
C2787      C2788   1.412       .  A
C2787      C2790   1.454       .  S
C2788      C2791   1.450       .  S
C2789      N2796   1.156       .  T
C2790      N2795   1.158       .  T
C2791      N2793   1.157       .  T
C2792      N2794   1.158       .  T
C2797      C2798   1.418       .  A
C2797      C2802   1.422       .  A
C2798      C2799   1.410       .  A
C2798      C2803   1.446       .  S
C2799      C2800   1.408       .  A
C2799      C2806   1.453       .  S
C2800      C2801   1.410       .  A
C2801      C2802   1.417       .  A
C2801      C2804   1.450       .  S
C2802      C2805   1.451       .  S
C2803      N2810   1.156       .  T
C2804      N2809   1.157       .  T
C2805      N2807   1.157       .  T
C2806      N2808   1.157       .  T
C2811      C2812   1.435       .  A
C2811      C2816   1.432       .  A
C2812      C2813   1.416       .  A
C2812      C2817   1.448       .  S
C2813      C2814   1.412       .  A
C2813      C2820   1.456       .  S
C2814      C2815   1.416       .  A
C2815      C2816   1.414       .  A
C2815      C2818   1.454       .  S
C2816      C2819   1.452       .  S
C2817      N2824   1.157       .  T
C2818      N2823   1.157   1_655  T
C2819      N2821   1.158       .  T
C2820      N2822   1.158       .  T
C2825      C2826   1.419       .  A
C2825      C2830   1.419       .  A
C2826      C2827   1.414       .  A
C2826      C2831   1.450       .  S
C2827      C2828   1.413       .  A
C2827      C2834   1.451       .  S
C2828      C2829   1.414       .  A
C2829      C2830   1.411       .  A
C2829      C2832   1.456       .  S
C2830      C2833   1.447       .  S
C2831      N2838   1.157       .  T
C2832      N2837   1.158       .  T
C2833      N2835   1.157       .  T
C2834      N2836   1.157       .  T
C2839      C2840   1.422       .  A
C2839      C2844   1.416       .  A
C2840      C2841   1.416       .  A
C2840      C2845   1.452       .  S
C2841      C2842   1.412       .  A
C2841      C2848   1.451       .  S
C2842      C2843   1.416       .  A
C2843      C2844   1.415       .  A
C2843      C2846   1.453       .  S
C2844      C2847   1.448       .  S
C2845      N2852   1.157       .  T
C2846      N2851   1.157       .  T
C2847      N2849   1.157       .  T
C2848      N2850   1.157       .  T
C2853      C2854   1.409       .  A
C2853      C2858   1.417       .  A
C2854      C2855   1.412       .  A
C2854      C2859   1.451       .  S
C2855      C2856   1.420       .  A
C2855      C2862   1.451       .  S
C2856      C2857   1.416       .  A
C2857      C2858   1.414       .  A
C2857      C2860   1.452       .  S
C2858      C2861   1.453       .  S
C2859      N2866   1.157       .  T
C2860      N2865   1.158       .  T
C2861      N2863   1.157       .  T
C2862      N2864   1.157       .  T
C2867      C2868   1.420       .  A
C2867      C2872   1.425       .  A
C2868      C2869   1.414       .  A
C2868      C2873   1.449       .  S
C2869      C2870   1.415       .  A
C2869      C2876   1.454       .  S
C2870      C2871   1.413       .  A
C2871      C2872   1.415       .  A
C2871      C2874   1.452       .  S
C2872      C2875   1.450       .  S
C2873      N2880   1.157       .  T
C2874      N2879   1.157       .  T
C2875      N2877   1.157       .  T
C2876      N2878   1.158       .  T
C2881      C2882   1.426       .  A
C2881      C2886   1.422       .  A
C2882      C2883   1.416       .  A
C2882      C2887   1.451       .  S
C2883      C2884   1.412       .  A
C2883      C2890   1.453       .  S
C2884      C2885   1.414       .  A
C2885      C2886   1.415       .  A
C2885      C2888   1.454       .  S
C2886      C2889   1.448       .  S
C2887      N2894   1.157       .  T
C2888      N2893   1.158       .  T
C2889      N2891   1.158       .  T
C2890      N2892   1.158       .  T
C2895      C2896   1.401       .  A
C2895      C2900   1.406       .  A
C2896      C2897   1.409       .  A
C2896      C2901   1.454       .  S
C2897      C2898   1.437       .  A
C2897      C2904   1.451       .  S
C2898      C2899   1.433       .  A
C2899      C2900   1.417       .  A
C2899      C2902   1.445       .  S
C2900      C2903   1.455       .  S
C2901      N2908   1.157       .  T
C2902      N2907   1.158       .  T
C2903      N2905   1.157       .  T
C2904      N2906   1.156       .  T
C2909      C2910   1.421       .  A
C2909      C2914   1.421       .  A
C2910      C2911   1.414       .  A
C2910      C2915   1.455       .  S
C2911      C2912   1.428       .  A
C2911      C2918   1.454       .  S
C2912      C2913   1.428       .  A
C2913      C2914   1.421       .  A
C2913      C2916   1.447       .  S
C2914      C2917   1.454       .  S
C2915      N2922   1.158       .  T
C2916      N2921   1.158       .  T
C2917      N2919   1.158       .  T
C2918      N2920   1.157       .  T
C2923      C2924   1.409       .  A
C2923      C2928   1.416       .  A
C2924      C2925   1.406       .  A
C2924      C2929   1.455       .  S
C2925      C2926   1.430       .  A
C2925      C2932   1.453       .  S
C2926      C2927   1.419       .  A
C2927      C2928   1.415       .  A
C2927      C2930   1.448       .  S
C2928      C2931   1.452       .  S
C2929      N2936   1.158       .  T
C2930      N2935   1.158       .  T
C2931      N2933   1.157   1_455  T
C2932      N2934   1.157       .  T
C2937      C2938   1.409       .  A
C2937      C2942   1.410       .  A
C2938      C2939   1.414       .  A
C2938      C2943   1.451       .  S
C2939      C2940   1.424       .  A
C2939      C2946   1.451       .  S
C2940      C2941   1.427       .  A
C2941      C2942   1.416       .  A
C2941      C2944   1.451       .  S
C2942      C2945   1.453       .  S
C2943      N2950   1.157       .  T
C2944      N2949   1.158       .  T
C2945      N2947   1.157       .  T
C2946      N2948   1.158       .  T
C2951      C2952   1.409       .  A
C2951      C2956   1.410       .  A
C2952      C2953   1.413       .  A
C2952      C2957   1.451       .  S
C2953      C2954   1.412       .  A
C2953      C2960   1.445       .  S
C2954      C2955   1.412       .  A
C2955      C2956   1.404       .  A
C2955      C2958   1.450       .  S
C2956      C2959   1.453       .  S
C2957      N2964   1.157       .  T
C2958      N2963   1.157       .  T
C2959      N2961   1.157       .  T
C2960      N2962   1.156       .  T
C2965      C2966   1.416       .  A
C2965      C2970   1.419       .  A
C2966      C2967   1.407       .  A
C2966      C2971   1.453       .  S
C2967      C2968   1.424       .  A
C2967      C2974   1.455       .  S
C2968      C2969   1.420       .  A
C2969      C2970   1.418       .  A
C2969      C2972   1.449       .  S
C2970      C2973   1.452       .  S
C2971      N2978   1.158       .  T
C2972      N2977   1.158       .  T
C2973      N2975   1.158       .  T
C2974      N2976   1.157       .  T
C2979      C2980   1.418       .  A
C2979      C2984   1.414       .  A
C2980      C2981   1.416       .  A
C2980      C2985   1.453       .  S
C2981      C2982   1.413       .  A
C2981      C2988   1.449       .  S
C2982      C2983   1.418       .  A
C2983      C2984   1.412       .  A
C2983      C2986   1.452       .  S
C2984      C2987   1.452       .  S
C2985      N2992   1.158       .  T
C2986      N2991   1.157       .  T
C2987      N2989   1.157       .  T
C2988      N2990   1.157       .  T
C2993      C2994   1.417       .  A
C2993      C2998   1.409       .  A
C2994      C2995   1.412       .  A
C2994      C2999   1.453       .  S
C2995      C2996   1.411       .  A
C2995      C3002   1.449       .  S
C2996      C2997   1.419       .  A
C2997      C2998   1.413       .  A
C2997      C3000   1.451       .  S
C2998      C3001   1.451       .  S
C2999      N3006   1.158       .  T
C3000      N3005   1.157       .  T
C3001      N3003   1.157       .  T
C3002      N3004   1.157       .  T
C3007      C3008   1.427       .  A
C3007      C3012   1.418       .  A
C3008      C3009   1.412       .  A
C3008      C3013   1.452       .  S
C3009      C3010   1.405       .  A
C3009      C3016   1.452       .  S
C3010      C3011   1.416       .  A
C3011      C3012   1.410       .  A
C3011      C3014   1.454       .  S
C3012      C3015   1.451       .  S
C3013      N3020   1.157       .  T
C3014      N3019   1.157       .  T
C3015      N3017   1.157       .  T
C3016      N3018   1.157       .  T
C3021      C3022   1.423       .  A
C3021      C3026   1.414       .  A
C3022      C3023   1.412       .  A
C3022      C3027   1.452       .  S
C3023      C3024   1.409       .  A
C3023      C3030   1.451       .  S
C3024      C3025   1.420       .  A
C3025      C3026   1.410       .  A
C3025      C3028   1.453       .  S
C3026      C3029   1.452       .  S
C3027      N3034   1.157       .  T
C3028      N3033   1.157       .  T
C3029      N3031   1.158       .  T
C3030      N3032   1.157       .  T
C3035      C3036   1.417       .  A
C3035      C3040   1.422       .  A
C3036      C3037   1.413       .  A
C3036      C3041   1.448       .  S
C3037      C3038   1.419       .  A
C3037      C3044   1.452       .  S
C3038      C3039   1.415       .  A
C3039      C3040   1.419       .  A
C3039      C3042   1.451       .  S
C3040      C3043   1.450       .  S
C3041      N3048   1.157       .  T
C3042      N3047   1.157       .  T
C3043      N3045   1.157       .  T
C3044      N3046   1.157       .  T
C3049      C3050   1.422       .  A
C3049      C3054   1.425       .  A
C3050      C3051   1.419       .  A
C3050      C3055   1.447       .  S
C3051      C3052   1.411       .  A
C3051      C3058   1.452       .  S
C3052      C3053   1.407       .  A
C3053      C3054   1.407       .  A
C3053      C3056   1.451       .  S
C3054      C3057   1.453       .  S
C3055      N3062   1.158       .  T
C3056      N3061   1.156       .  T
C3057      N3059   1.157       .  T
C3058      N3060   1.157       .  T
C3063      C3064   1.407       .  A
C3063      C3068   1.409       .  A
C3064      C3065   1.411       .  A
C3064      C3069   1.453       .  S
C3065      C3066   1.427       .  A
C3065      C3072   1.453       .  S
C3066      C3067   1.425       .  A
C3067      C3068   1.414       .  A
C3067      C3070   1.451       .  S
C3068      C3071   1.453       .  S
C3069      N3076   1.157       .  T
C3070      N3075   1.158       .  T
C3071      N3073   1.157       .  T
C3072      N3074   1.158       .  T
C3077      C3078   1.415       .  A
C3077      C3082   1.416       .  A
C3078      C3079   1.416       .  A
C3078      C3083   1.448       .  S
C3079      C3080   1.410       .  A
C3079      C3086   1.449       .  S
C3080      C3081   1.408       .  A
C3081      C3082   1.404       .  A
C3081      C3084   1.451       .  S
C3082      C3085   1.453       .  S
C3083      N3090   1.157       .  T
C3084      N3089   1.156       .  T
C3085      N3087   1.157       .  T
C3086      N3088   1.157       .  T
C3091      C3092   1.412       .  A
C3091      C3096   1.415       .  A
C3092      C3093   1.415       .  A
C3092      C3097   1.454       .  S
C3093      C3094   1.424       .  A
C3093      C3100   1.446       .  S
C3094      C3095   1.420       .  A
C3095      C3096   1.414       .  A
C3095      C3098   1.449       .  S
C3096      C3099   1.454       .  S
C3097      N3104   1.157   1_455  T
C3098      N3103   1.157       .  T
C3099      N3101   1.158       .  T
C3100      N3102   1.156       .  T
C3105      C3106   1.417       .  A
C3105      C3110   1.415       .  A
C3106      C3107   1.419       .  A
C3106      C3111   1.454       .  S
C3107      C3108   1.430       .  A
C3107      C3114   1.450       .  S
C3108      C3109   1.424       .  A
C3109      C3110   1.405       .  A
C3109      C3112   1.452       .  S
C3110      C3113   1.454       .  S
C3111      N3118   1.158       .  T
C3112      N3117   1.157       .  T
C3113      N3115   1.158   1_455  T
C3114      N3116   1.158       .  T
C3119      C3120   1.413       .  A
C3119      C3124   1.418       .  A
C3120      C3121   1.414       .  A
C3120      C3125   1.450       .  S
C3121      C3122   1.417       .  A
C3121      C3128   1.452       .  S
C3122      C3123   1.415       .  A
C3123      C3124   1.414       .  A
C3123      C3126   1.452       .  S
C3124      C3127   1.452       .  S
C3125      N3132   1.157       .  T
C3126      N3131   1.157       .  T
C3127      N3129   1.157       .  T
C3128      N3130   1.158       .  T
C3133      C3134   1.422       .  A
C3133      C3138   1.420       .  A
C3134      C3135   1.412       .  A
C3134      C3139   1.448       .  S
C3135      C3136   1.416       .  A
C3135      C3142   1.454       .  S
C3136      C3137   1.420       .  A
C3137      C3138   1.417       .  A
C3137      C3140   1.453       .  S
C3138      C3141   1.449       .  S
C3139      N3146   1.156       .  T
C3140      N3145   1.158   1_545  T
C3141      N3143   1.158       .  T
C3142      N3144   1.158       .  T
C3147      C3148   1.424       .  A
C3147      C3152   1.420       .  A
C3148      C3149   1.417       .  A
C3148      C3153   1.451       .  S
C3149      C3150   1.412       .  A
C3149      C3156   1.452       .  S
C3150      C3151   1.415       .  A
C3151      C3152   1.416       .  A
C3151      C3154   1.454       .  S
C3152      C3155   1.448       .  S
C3153      N3160   1.157       .  T
C3154      N3159   1.158       .  T
C3155      N3157   1.157       .  T
C3156      N3158   1.158       .  T
C3161      C3162   1.424       .  A
C3161      C3166   1.421       .  A
C3162      C3163   1.421       .  A
C3162      C3167   1.450       .  S
C3163      C3164   1.410       .  A
C3163      C3170   1.450       .  S
C3164      C3165   1.407       .  A
C3165      C3166   1.409       .  A
C3165      C3168   1.453       .  S
C3166      C3169   1.447       .  S
C3167      N3174   1.157       .  T
C3168      N3173   1.157       .  T
C3169      N3171   1.158       .  T
C3170      N3172   1.157   1_565  T
C3175      C3176   1.432       .  A
C3175      C3180   1.436       .  A
C3176      C3177   1.415       .  A
C3176      C3181   1.454       .  S
C3177      C3178   1.417       .  A
C3177      C3184   1.456       .  S
C3178      C3179   1.411       .  A
C3179      C3180   1.416       .  A
C3179      C3182   1.454       .  S
C3180      C3183   1.451       .  S
C3181      N3188   1.158       .  T
C3182      N3187   1.158       .  T
C3183      N3185   1.158       .  T
C3184      N3186   1.158   1_565  T
C3189      C3190   1.423       .  A
C3189      C3194   1.419       .  A
C3190      C3191   1.413       .  A
C3190      C3195   1.446       .  S
C3191      C3192   1.409       .  A
C3191      C3198   1.454       .  S
C3192      C3193   1.416       .  A
C3193      C3194   1.419       .  A
C3193      C3196   1.452       .  S
C3194      C3197   1.449       .  S
C3195      N3202   1.155       .  T
C3196      N3201   1.158       .  T
C3197      N3199   1.157       .  T
C3198      N3200   1.158       .  T
C3203      C3204   1.406       .  A
C3203      C3208   1.404       .  A
C3204      C3205   1.414       .  A
C3204      C3209   1.452       .  S
C3205      C3206   1.426       .  A
C3205      C3212   1.447       .  S
C3206      C3207   1.434       .  A
C3207      C3208   1.409       .  A
C3207      C3210   1.452       .  S
C3208      C3211   1.455       .  S
C3209      N3216   1.157       .  T
C3210      N3215   1.157       .  T
C3211      N3213   1.157       .  T
C3212      N3214   1.157       .  T
C3217      C3218   1.412       .  A
C3217      C3222   1.407       .  A
C3218      C3219   1.409       .  A
C3218      C3223   1.452       .  S
C3219      C3220   1.417       .  A
C3219      C3226   1.452       .  S
C3220      C3221   1.421       .  A
C3221      C3222   1.411       .  A
C3221      C3224   1.452       .  S
C3222      C3225   1.449       .  S
C3223      N3230   1.157       .  T
C3224      N3229   1.157       .  T
C3225      N3227   1.156       .  T
C3226      N3228   1.157       .  T
C3231      C3232   1.435       .  A
C3231      C3236   1.432       .  A
C3232      C3233   1.411       .  A
C3232      C3237   1.452       .  S
C3233      C3234   1.404       .  A
C3233      C3240   1.455       .  S
C3234      C3235   1.407       .  A
C3235      C3236   1.410       .  A
C3235      C3238   1.456       .  S
C3236      C3239   1.450       .  S
C3237      N3244   1.158       .  T
C3238      N3243   1.158   1_655  T
C3239      N3241   1.158       .  T
C3240      N3242   1.157       .  T
C3245      C3246   1.407       .  A
C3245      C3250   1.405       .  A
C3246      C3247   1.413       .  A
C3246      C3251   1.452       .  S
C3247      C3248   1.423       .  A
C3247      C3254   1.447       .  S
C3248      C3249   1.426       .  A
C3249      C3250   1.410       .  A
C3249      C3252   1.448       .  S
C3250      C3253   1.453       .  S
C3251      N3258   1.157       .  T
C3252      N3257   1.156       .  T
C3253      N3255   1.157       .  T
C3254      N3256   1.158       .  T
C3259      C3260   1.421       .  A
C3259      C3264   1.424       .  A
C3260      C3261   1.403       .  A
C3260      C3265   1.449       .  S
C3261      C3262   1.407       .  A
C3261      C3268   1.452       .  S
C3262      C3263   1.412       .  A
C3263      C3264   1.416       .  A
C3263      C3266   1.452       .  S
C3264      C3267   1.449       .  S
C3265      N3272   1.156       .  T
C3266      N3271   1.157       .  T
C3267      N3269   1.158       .  T
C3268      N3270   1.156       .  T
C3273      C3274   1.419       .  A
C3273      C3278   1.422       .  A
C3274      C3275   1.416       .  A
C3274      C3279   1.451       .  S
C3275      C3276   1.416       .  A
C3275      C3282   1.453       .  S
C3276      C3277   1.407       .  A
C3277      C3278   1.412       .  A
C3277      C3280   1.450       .  S
C3278      C3281   1.449       .  S
C3279      N3286   1.157       .  T
C3280      N3285   1.157       .  T
C3281      N3283   1.157       .  T
C3282      N3284   1.157       .  T
C3287      C3288   1.415       .  A
C3287      C3292   1.413       .  A
C3288      C3289   1.414       .  A
C3288      C3293   1.452       .  S
C3289      C3290   1.414       .  A
C3289      C3296   1.450       .  S
C3290      C3291   1.420       .  A
C3291      C3292   1.413       .  A
C3291      C3294   1.453       .  S
C3292      C3295   1.452       .  S
C3293      N3300   1.157       .  T
C3294      N3299   1.158       .  T
C3295      N3297   1.157       .  T
C3296      N3298   1.157       .  T
C3301      C3302   1.420       .  A
C3301      C3306   1.427       .  A
C3302      C3303   1.415       .  A
C3302      C3307   1.450       .  S
C3303      C3304   1.413       .  A
C3303      C3310   1.452       .  S
C3304      C3305   1.408       .  A
C3305      C3306   1.408       .  A
C3305      C3308   1.455       .  S
C3306      C3309   1.452       .  S
C3307      N3314   1.158       .  T
C3308      N3313   1.157       .  T
C3309      N3311   1.158       .  T
C3310      N3312   1.158       .  T
C3315      C3316   1.409       .  A
C3315      C3320   1.409       .  A
C3316      C3317   1.413       .  A
C3316      C3321   1.451       .  S
C3317      C3318   1.414       .  A
C3317      C3324   1.448       .  S
C3318      C3319   1.419       .  A
C3319      C3320   1.406       .  A
C3319      C3322   1.453       .  S
C3320      C3323   1.452       .  S
C3321      N3328   1.157       .  T
C3322      N3327   1.157       .  T
C3323      N3325   1.157       .  T
C3324      N3326   1.157       .  T
C3329      C3330   1.426       .  A
C3329      C3334   1.421       .  A
C3330      C3331   1.405       .  A
C3330      C3335   1.454       .  S
C3331      C3332   1.415       .  A
C3331      C3338   1.456       .  S
C3332      C3333   1.415       .  A
C3333      C3334   1.419       .  A
C3333      C3336   1.452       .  S
C3334      C3337   1.447       .  S
C3335      N3342   1.157       .  T
C3336      N3341   1.158       .  T
C3337      N3339   1.157       .  T
C3338      N3340   1.158       .  T
C3343      C3344   1.426       .  A
C3343      C3348   1.427       .  A
C3344      C3345   1.413       .  A
C3344      C3349   1.446       .  S
C3345      C3346   1.407       .  A
C3345      C3352   1.453       .  S
C3346      C3347   1.409       .  A
C3347      C3348   1.410       .  A
C3347      C3350   1.453       .  S
C3348      C3351   1.453       .  S
C3349      N3356   1.157       .  T
C3350      N3355   1.157       .  T
C3351      N3353   1.157       .  T
C3352      N3354   1.157       .  T
C3357      C3358   1.417       .  A
C3357      C3362   1.418       .  A
C3358      C3359   1.416       .  A
C3358      C3363   1.447       .  S
C3359      C3360   1.413       .  A
C3359      C3366   1.453       .  S
C3360      C3361   1.413       .  A
C3361      C3362   1.413       .  A
C3361      C3364   1.452       .  S
C3362      C3365   1.451       .  S
C3363      N3370   1.156       .  T
C3364      N3369   1.157       .  T
C3365      N3367   1.157       .  T
C3366      N3368   1.158       .  T
C3371      C3372   1.410       .  A
C3371      C3376   1.417       .  A
C3372      C3373   1.415       .  A
C3372      C3377   1.454       .  S
C3373      C3374   1.425       .  A
C3373      C3380   1.447       .  S
C3374      C3375   1.418       .  A
C3375      C3376   1.417       .  A
C3375      C3378   1.450       .  S
C3376      C3379   1.453       .  S
C3377      N3384   1.157       .  T
C3378      N3383   1.157       .  T
C3379      N3381   1.158   1_565  T
C3380      N3382   1.156       .  T
C3385      C3386   1.409       .  A
C3385      C3390   1.406       .  A
C3386      C3387   1.416       .  A
C3386      C3391   1.452       .  S
C3387      C3388   1.421       .  A
C3387      C3394   1.447       .  S
C3388      C3389   1.424       .  A
C3389      C3390   1.408       .  A
C3389      C3392   1.451       .  S
C3390      C3393   1.454       .  S
C3391      N3398   1.157   1_565  T
C3392      N3397   1.157       .  T
C3393      N3395   1.157       .  T
C3394      N3396   1.157       .  T
C3399      C3400   1.413       .  A
C3399      C3404   1.405       .  A
C3400      C3401   1.413       .  A
C3400      C3405   1.453       .  S
C3401      C3402   1.422       .  A
C3401      C3408   1.451       .  S
C3402      C3403   1.432       .  A
C3403      C3404   1.410       .  A
C3403      C3406   1.454       .  S
C3404      C3407   1.454       .  S
C3405      N3412   1.157       .  T
C3406      N3411   1.158       .  T
C3407      N3409   1.157       .  T
C3408      N3410   1.158       .  T
C3413      C3414   1.407       .  A
C3413      C3418   1.400       .  A
C3414      C3415   1.415       .  A
C3414      C3419   1.452   1_455  S
C3415      C3416   1.424       .  A
C3415      C3422   1.446       .  S
C3416      C3417   1.437       .  A
C3417      C3418   1.406       .  A
C3417      C3420   1.453       .  S
C3418      C3421   1.455       .  S
C3419      N3426   1.157       .  T
C3420      N3425   1.157       .  T
C3421      N3423   1.157       .  T
C3422      N3424   1.157       .  T
C3427      C3428   1.413       .  A
C3427      C3432   1.417       .  A
C3428      C3429   1.406       .  A
C3428      C3433   1.454       .  S
C3429      C3430   1.427       .  A
C3429      C3436   1.454       .  S
C3430      C3431   1.419       .  A
C3431      C3432   1.416       .  A
C3431      C3434   1.447       .  S
C3432      C3435   1.453       .  S
C3433      N3440   1.158       .  T
C3434      N3439   1.157       .  T
C3435      N3437   1.158   1_655  T
C3436      N3438   1.157       .  T
C3441      C3442   1.419       .  A
C3441      C3446   1.422       .  A
C3442      C3443   1.414       .  A
C3442      C3447   1.448       .  S
C3443      C3444   1.416       .  A
C3443      C3450   1.454       .  S
C3444      C3445   1.415       .  A
C3445      C3446   1.418       .  A
C3445      C3448   1.451       .  S
C3446      C3449   1.452       .  S
C3447      N3454   1.157       .  T
C3448      N3453   1.157       .  T
C3449      N3451   1.157       .  T
C3450      N3452   1.158       .  T
C3455      C3456   1.412       .  A
C3455      C3460   1.417       .  A
C3456      C3457   1.414       .  A
C3456      C3461   1.453       .  S
C3457      C3458   1.423       .  A
C3457      C3464   1.448       .  S
C3458      C3459   1.417       .  A
C3459      C3460   1.416       .  A
C3459      C3462   1.449       .  S
C3460      C3463   1.453       .  S
C3461      N3468   1.157       .  T
C3462      N3467   1.157       .  T
C3463      N3465   1.157       .  T
C3464      N3466   1.156       .  T
C3469      C3470   1.413       .  A
C3469      C3474   1.418       .  A
C3470      C3471   1.414       .  A
C3470      C3475   1.449       .  S
C3471      C3472   1.413       .  A
C3471      C3478   1.451       .  S
C3472      C3473   1.412       .  A
C3473      C3474   1.404       .  A
C3473      C3476   1.454       .  S
C3474      C3477   1.454       .  S
C3475      N3482   1.157       .  T
C3476      N3481   1.158       .  T
C3477      N3479   1.157       .  T
C3478      N3480   1.157       .  T
C3483      C3484   1.417       .  A
C3483      C3488   1.426       .  A
C3484      C3485   1.412       .  A
C3484      C3489   1.453       .  S
C3485      C3486   1.422       .  A
C3485      C3492   1.452       .  S
C3486      C3487   1.416       .  A
C3487      C3488   1.416       .  A
C3487      C3490   1.449       .  S
C3488      C3491   1.454       .  S
C3489      N3496   1.158       .  T
C3490      N3495   1.158       .  T
C3491      N3493   1.158       .  T
C3492      N3494   1.157       .  T
C3497      C3498   1.419       .  A
C3497      C3502   1.423       .  A
C3498      C3499   1.415       .  A
C3498      C3503   1.450       .  S
C3499      C3500   1.420       .  A
C3499      C3506   1.451       .  S
C3500      C3501   1.421       .  A
C3501      C3502   1.409       .  A
C3501      C3504   1.451       .  S
C3502      C3505   1.457       .  S
C3503      N3510   1.157       .  T
C3504      N3509   1.156       .  T
C3505      N3507   1.158       .  T
C3506      N3508   1.158       .  T
C3511      C3512   1.410       .  A
C3511      C3516   1.410       .  A
C3512      C3513   1.407       .  A
C3512      C3517   1.456       .  S
C3513      C3514   1.432       .  A
C3513      C3520   1.454       .  S
C3514      C3515   1.422       .  A
C3515      C3516   1.415       .  A
C3515      C3518   1.447       .  S
C3516      C3519   1.449       .  S
C3517      N3524   1.158       .  T
C3518      N3523   1.157       .  T
C3519      N3521   1.156       .  T
C3520      N3522   1.157       .  T
C3525      C3526   1.411       .  A
C3525      C3530   1.409       .  A
C3526      C3527   1.412       .  A
C3526      C3531   1.446       .  S
C3527      C3528   1.418       .  A
C3527      C3534   1.452       .  S
C3528      C3529   1.426       .  A
C3529      C3530   1.416       .  A
C3529      C3532   1.452       .  S
C3530      C3533   1.447       .  S
C3531      N3538   1.156       .  T
C3532      N3537   1.157       .  T
C3533      N3535   1.156       .  T
C3534      N3536   1.158       .  T
C3539      C3540   1.424       .  A
C3539      C3544   1.419       .  A
C3540      C3541   1.416       .  A
C3540      C3545   1.452       .  S
C3541      C3542   1.412       .  A
C3541      C3548   1.452       .  S
C3542      C3543   1.417       .  A
C3543      C3544   1.416       .  A
C3543      C3546   1.454       .  S
C3544      C3547   1.448       .  S
C3545      N3552   1.157       .  T
C3546      N3551   1.158       .  T
C3547      N3549   1.157       .  T
C3548      N3550   1.157       .  T
C3553      C3554   1.409       .  A
C3553      C3558   1.409       .  A
C3554      C3555   1.402       .  A
C3554      C3559   1.454       .  S
C3555      C3556   1.415       .  A
C3555      C3562   1.454       .  S
C3556      C3557   1.412       .  A
C3557      C3558   1.412       .  A
C3557      C3560   1.449       .  S
C3558      C3561   1.450       .  S
C3559      N3566   1.157       .  T
C3560      N3565   1.157       .  T
C3561      N3563   1.157       .  T
C3562      N3564   1.157       .  T
C3567      C3568   1.417       .  A
C3567      C3572   1.415       .  A
C3568      C3569   1.405       .  A
C3568      C3573   1.454       .  S
C3569      C3570   1.413       .  A
C3569      C3576   1.453       .  S
C3570      C3571   1.413       .  A
C3571      C3572   1.415       .  A
C3571      C3574   1.452       .  S
C3572      C3575   1.447       .  S
C3573      N3580   1.157       .  T
C3574      N3579   1.158       .  T
C3575      N3577   1.157       .  T
C3576      N3578   1.157       .  T
C3581      C3582   1.419       .  A
C3581      C3586   1.421       .  A
C3582      C3583   1.415       .  A
C3582      C3587   1.451       .  S
C3583      C3584   1.422       .  A
C3583      C3590   1.447       .  S
C3584      C3585   1.423       .  A
C3585      C3586   1.411       .  A
C3585      C3588   1.453       .  S
C3586      C3589   1.452       .  S
C3587      N3594   1.158       .  T
C3588      N3593   1.157       .  T
C3589      N3591   1.157       .  T
C3590      N3592   1.158       .  T
C3595      C3596   1.411       .  A
C3595      C3600   1.407       .  A
C3596      C3597   1.414       .  A
C3596      C3601   1.452       .  S
C3597      C3598   1.424       .  A
C3597      C3604   1.449       .  S
C3598      C3599   1.427       .  A
C3599      C3600   1.406       .  A
C3599      C3602   1.454       .  S
C3600      C3603   1.452       .  S
C3601      N3608   1.157       .  T
C3602      N3607   1.157       .  T
C3603      N3605   1.156       .  T
C3604      N3606   1.158       .  T
C3609      C3610   1.413       .  A
C3609      C3614   1.408       .  A
C3610      C3611   1.414       .  A
C3610      C3615   1.452       .  S
C3611      C3612   1.419       .  A
C3611      C3618   1.450       .  S
C3612      C3613   1.419       .  A
C3613      C3614   1.412       .  A
C3613      C3616   1.450       .  S
C3614      C3617   1.450       .  S
C3615      N3622   1.157       .  T
C3616      N3621   1.157       .  T
C3617      N3619   1.158       .  T
C3618      N3620   1.157       .  T
C3623      C3624   1.412       .  A
C3623      C3628   1.417       .  A
C3624      C3625   1.414       .  A
C3624      C3629   1.451       .  S
C3625      C3626   1.421       .  A
C3625      C3632   1.452       .  S
C3626      C3627   1.415       .  A
C3627      C3628   1.414       .  A
C3627      C3630   1.449       .  S
C3628      C3631   1.453       .  S
C3629      N3636   1.157       .  T
C3630      N3635   1.157       .  T
C3631      N3633   1.158       .  T
C3632      N3634   1.157       .  T
C3637      C3638   1.411       .  A
C3637      C3642   1.408       .  A
C3638      C3639   1.405       .  A
C3638      C3643   1.453       .  S
C3639      C3640   1.409       .  A
C3639      C3646   1.448       .  S
C3640      C3641   1.412       .  A
C3641      C3642   1.411       .  A
C3641      C3644   1.445       .  S
C3642      C3645   1.451       .  S
C3643      N3650   1.157       .  T
C3644      N3649   1.156       .  T
C3645      N3647   1.157       .  T
C3646      N3648   1.157       .  T
C3651      C3652   1.407       .  A
C3651      C3656   1.410       .  A
C3652      C3653   1.403       .  A
C3652      C3657   1.450       .  S
C3653      C3654   1.420       .  A
C3653      C3660   1.453       .  S
C3654      C3655   1.419       .  A
C3655      C3656   1.417       .  A
C3655      C3658   1.451       .  S
C3656      C3659   1.447       .  S
C3657      N3664   1.157       .  T
C3658      N3663   1.158       .  T
C3659      N3661   1.157       .  T
C3660      N3662   1.158       .  T
C3665      C3666   1.436       .  A
C3665      C3670   1.433       .  A
C3666      C3667   1.413       .  A
C3666      C3671   1.454       .  S
C3667      C3668   1.406       .  A
C3667      C3674   1.453       .  S
C3668      C3669   1.409       .  A
C3669      C3670   1.417       .  A
C3669      C3672   1.456       .  S
C3670      C3673   1.446       .  S
C3671      N3678   1.158       .  T
C3672      N3677   1.157       .  T
C3673      N3675   1.158       .  T
C3674      N3676   1.157       .  T
C3679      C3680   1.409       .  A
C3679      C3684   1.408       .  A
C3680      C3681   1.408       .  A
C3680      C3685   1.454       .  S
C3681      C3682   1.424       .  A
C3681      C3688   1.448       .  S
C3682      C3683   1.422       .  A
C3683      C3684   1.414       .  A
C3683      C3686   1.447       .  S
C3684      C3687   1.451       .  S
C3685      N3692   1.158       .  T
C3686      N3691   1.157       .  T
C3687      N3689   1.157       .  T
C3688      N3690   1.156       .  T
C3693      C3694   1.420       .  A
C3693      C3698   1.422       .  A
C3694      C3695   1.418       .  A
C3694      C3699   1.448       .  S
C3695      C3696   1.414       .  A
C3695      C3702   1.451       .  S
C3696      C3697   1.410       .  A
C3697      C3698   1.414       .  A
C3697      C3700   1.451       .  S
C3698      C3701   1.450       .  S
C3699      N3706   1.157       .  T
C3700      N3705   1.157       .  T
C3701      N3703   1.157       .  T
C3702      N3704   1.157       .  T
C3707      C3708   1.419       .  A
C3707      C3712   1.412       .  A
C3708      C3709   1.415       .  A
C3708      C3713   1.451       .  S
C3709      C3710   1.418       .  A
C3709      C3716   1.450       .  S
C3710      C3711   1.427       .  A
C3711      C3712   1.418       .  A
C3711      C3714   1.448       .  S
C3712      C3715   1.453       .  S
C3713      N3720   1.157       .  T
C3714      N3719   1.156       .  T
C3715      N3717   1.157       .  T
C3716      N3718   1.157       .  T
C3721      C3722   1.431       .  A
C3721      C3726   1.429       .  A
C3722      C3723   1.409       .  A
C3722      C3727   1.450       .  S
C3723      C3724   1.405       .  A
C3723      C3730   1.455       .  S
C3724      C3725   1.406       .  A
C3725      C3726   1.419       .  A
C3725      C3728   1.450       .  S
C3726      C3729   1.448       .  S
C3727      N3734   1.157       .  T
C3728      N3733   1.157       .  T
C3729      N3731   1.158       .  T
C3730      N3732   1.157       .  T
C3735      C3736   1.412       .  A
C3735      C3740   1.415       .  A
C3736      C3737   1.407       .  A
C3736      C3741   1.450       .  S
C3737      C3738   1.414       .  A
C3737      C3744   1.454       .  S
C3738      C3739   1.409       .  A
C3739      C3740   1.416       .  A
C3739      C3742   1.451       .  S
C3740      C3743   1.446       .  S
C3741      N3748   1.157       .  T
C3742      N3747   1.157       .  T
C3743      N3745   1.156       .  T
C3744      N3746   1.157       .  T
C3749      C3750   1.406       .  A
C3749      C3754   1.408       .  A
C3750      C3751   1.413       .  A
C3750      C3755   1.455       .  S
C3751      C3752   1.435       .  A
C3751      C3758   1.450       .  S
C3752      C3753   1.439       .  A
C3753      C3754   1.420       .  A
C3753      C3756   1.446       .  S
C3754      C3757   1.456       .  S
C3755      N3762   1.157       .  T
C3756      N3761   1.158       .  T
C3757      N3759   1.158       .  T
C3758      N3760   1.156       .  T
C3763      C3764   1.435       .  A
C3763      C3768   1.423       .  A
C3764      C3765   1.408       .  A
C3764      C3769   1.453       .  S
C3765      C3766   1.402       .  A
C3765      C3772   1.454       .  S
C3766      C3767   1.407       .  A
C3767      C3768   1.414       .  A
C3767      C3770   1.451       .  S
C3768      C3771   1.446       .  S
C3769      N3776   1.157       .  T
C3770      N3775   1.157       .  T
C3771      N3773   1.157       .  T
C3772      N3774   1.157       .  T
C3777      C3778   1.411       .  A
C3777      C3782   1.418       .  A
C3778      C3779   1.415       .  A
C3778      C3783   1.451       .  S
C3779      C3780   1.421       .  A
C3779      C3786   1.449       .  S
C3780      C3781   1.418       .  A
C3781      C3782   1.417       .  A
C3781      C3784   1.448       .  S
C3782      C3785   1.453       .  S
C3783      N3790   1.157       .  T
C3784      N3789   1.157       .  T
C3785      N3787   1.157       .  T
C3786      N3788   1.157       .  T
C3791      C3792   1.414       .  A
C3791      C3796   1.411       .  A
C3792      C3793   1.412       .  A
C3792      C3797   1.451       .  S
C3793      C3794   1.411       .  A
C3793      C3800   1.450       .  S
C3794      C3795   1.414       .  A
C3795      C3796   1.413       .  A
C3795      C3798   1.451       .  S
C3796      C3799   1.451       .  S
C3797      N3804   1.157       .  T
C3798      N3803   1.157       .  T
C3799      N3801   1.157       .  T
C3800      N3802   1.157       .  T
C3805      C3806   1.407       .  A
C3805      C3810   1.413       .  A
C3806      C3807   1.410       .  A
C3806      C3811   1.452       .  S
C3807      C3808   1.423       .  A
C3807      C3814   1.450       .  S
C3808      C3809   1.418       .  A
C3809      C3810   1.411       .  A
C3809      C3812   1.448       .  S
C3810      C3813   1.454       .  S
C3811      N3818   1.157       .  T
C3812      N3817   1.158       .  T
C3813      N3815   1.158       .  T
C3814      N3816   1.157       .  T
C3819      C3820   1.413       .  A
C3819      C3824   1.404       .  A
C3820      C3821   1.408       .  A
C3820      C3825   1.453       .  S
C3821      C3822   1.417       .  A
C3821      C3828   1.452       .  S
C3822      C3823   1.424       .  A
C3823      C3824   1.409       .  A
C3823      C3826   1.451       .  S
C3824      C3827   1.452       .  S
C3825      N3832   1.157       .  T
C3826      N3831   1.157       .  T
C3827      N3829   1.157       .  T
C3828      N3830   1.157       .  T
C3833      C3834   1.408       .  A
C3833      C3838   1.401       .  A
C3834      C3835   1.416       .  A
C3834      C3839   1.452       .  S
C3835      C3836   1.424       .  A
C3835      C3842   1.446       .  S
C3836      C3837   1.436       .  A
C3837      C3838   1.408       .  A
C3837      C3840   1.453       .  S
C3838      C3841   1.454       .  S
C3839      N3846   1.157   1_554  T
C3840      N3845   1.157       .  T
C3841      N3843   1.157       .  T
C3842      N3844   1.157       .  T
C3847      C3848   1.410       .  A
C3847      C3852   1.413       .  A
C3848      C3849   1.406       .  A
C3848      C3853   1.454       .  S
C3849      C3850   1.422       .  A
C3849      C3856   1.448       .  S
C3850      C3851   1.424       .  A
C3851      C3852   1.419       .  A
C3851      C3854   1.448       .  S
C3852      C3855   1.452       .  S
C3853      N3860   1.157       .  T
C3854      N3859   1.158       .  T
C3855      N3857   1.157   1_556  T
C3856      N3858   1.155       .  T
C3861      C3862   1.418       .  A
C3861      C3866   1.414       .  A
C3862      C3863   1.415       .  A
C3862      C3867   1.453       .  S
C3863      C3864   1.414       .  A
C3863      C3870   1.448       .  S
C3864      C3865   1.418       .  A
C3865      C3866   1.415       .  A
C3865      C3868   1.451       .  S
C3866      C3869   1.451       .  S
C3867      N3874   1.158       .  T
C3868      N3873   1.157       .  T
C3869      N3871   1.157       .  T
C3870      N3872   1.157       .  T
C3875      C3876   1.417       .  A
C3875      C3880   1.413       .  A
C3876      C3877   1.418       .  A
C3876      C3881   1.453       .  S
C3877      C3878   1.419       .  A
C3877      C3884   1.448       .  S
C3878      C3879   1.423       .  A
C3879      C3880   1.414       .  A
C3879      C3882   1.452       .  S
C3880      C3883   1.452       .  S
C3881      N3888   1.157       .  T
C3882      N3887   1.157       .  T
C3883      N3885   1.157       .  T
C3884      N3886   1.157       .  T
C3889      C3890   1.416       .  A
C3889      C3894   1.418       .  A
C3890      C3891   1.419       .  A
C3890      C3895   1.450       .  S
C3891      C3892   1.413       .  A
C3891      C3898   1.448       .  S
C3892      C3893   1.412       .  A
C3893      C3894   1.403       .  A
C3893      C3896   1.454       .  S
C3894      C3897   1.454       .  S
C3895      N3902   1.158   1_556  T
C3896      N3901   1.157       .  T
C3897      N3899   1.157       .  T
C3898      N3900   1.157       .  T
C3903      C3904   1.428       .  A
C3903      C3908   1.418       .  A
C3904      C3905   1.412       .  A
C3904      C3909   1.452       .  S
C3905      C3906   1.402       .  A
C3905      C3912   1.447       .  S
C3906      C3907   1.410       .  A
C3907      C3908   1.413       .  A
C3907      C3910   1.448       .  S
C3908      C3911   1.451       .  S
C3909      N3916   1.158       .  T
C3910      N3915   1.157       .  T
C3911      N3913   1.157       .  T
C3912      N3914   1.157       .  T
C3917      C3918   1.410       .  A
C3917      C3922   1.416       .  A
C3918      C3919   1.402       .  A
C3918      C3923   1.456       .  S
C3919      C3920   1.429       .  A
C3919      C3926   1.454       .  S
C3920      C3921   1.421       .  A
C3921      C3922   1.419       .  A
C3921      C3924   1.448       .  S
C3922      C3925   1.452       .  S
C3923      N3930   1.158       .  T
C3924      N3929   1.157       .  T
C3925      N3927   1.158       .  T
C3926      N3928   1.157       .  T
C3931      C3932   1.410       .  A
C3931      C3936   1.410       .  A
C3932      C3933   1.414       .  A
C3932      C3937   1.452       .  S
C3933      C3934   1.422       .  A
C3933      C3940   1.447       .  S
C3934      C3935   1.426       .  A
C3935      C3936   1.406       .  A
C3935      C3938   1.452       .  S
C3936      C3939   1.454       .  S
C3937      N3944   1.157       .  T
C3938      N3943   1.157       .  T
C3939      N3941   1.157       .  T
C3940      N3942   1.158       .  T
C3945      C3946   1.412       .  A
C3945      C3950   1.412       .  A
C3946      C3947   1.412       .  A
C3946      C3951   1.450       .  S
C3947      C3948   1.411       .  A
C3947      C3954   1.451       .  S
C3948      C3949   1.411       .  A
C3949      C3950   1.410       .  A
C3949      C3952   1.450       .  S
C3950      C3953   1.452       .  S
C3951      N3958   1.157       .  T
C3952      N3957   1.157       .  T
C3953      N3955   1.157       .  T
C3954      N3956   1.157       .  T
C3959      C3960   1.412       .  A
C3959      C3964   1.411       .  A
C3960      C3961   1.416       .  A
C3960      C3965   1.453       .  S
C3961      C3962   1.421       .  A
C3961      C3968   1.448       .  S
C3962      C3963   1.424       .  A
C3963      C3964   1.415       .  A
C3963      C3966   1.451       .  S
C3964      C3967   1.452       .  S
C3965      N3972   1.157       .  T
C3966      N3971   1.157       .  T
C3967      N3969   1.157       .  T
C3968      N3970   1.157       .  T
C3973      C3974   1.410       .  A
C3973      C3978   1.418       .  A
C3974      C3975   1.413       .  A
C3974      C3979   1.452       .  S
C3975      C3976   1.425       .  A
C3975      C3982   1.451       .  S
C3976      C3977   1.416       .  A
C3977      C3978   1.414       .  A
C3977      C3980   1.449       .  S
C3978      C3981   1.454       .  S
C3979      N3986   1.158       .  T
C3980      N3985   1.157       .  T
C3981      N3983   1.158       .  T
C3982      N3984   1.157       .  T
C3987      C3988   1.411       .  A
C3987      C3992   1.421       .  A
C3988      C3989   1.411       .  A
C3988      C3993   1.452       .  S
C3989      C3990   1.416       .  A
C3989      C3996   1.449       .  S
C3990      C3991   1.406       .  A
C3991      C3992   1.410       .  A
C3991      C3994   1.449       .  S
C3992      C3995   1.453       .  S
C3993      N4000   1.157       .  T
C3994      N3999   1.157       .  T
C3995      N3997   1.158       .  T
C3996      N3998   1.157       .  T
