geometry optimzed in LAMMPS
_audit_creation_date              2020-11-30 
_audit_creation_method            'lammps2cif' 
_symmetry_space_group_name_H-M    'P1' 
_symmetry_Int_Tables_number       1 
_symmetry_cell_setting            triclinic 
loop_ 
_symmetry_equiv_pos_as_xyz 
  x,y,z 
_cell_length_a                    33.15785878 
_cell_length_b                    33.14177184217347 
_cell_length_c                    33.18256425125083 
_cell_angle_alpha                 88.21799742713341 
_cell_angle_beta                  88.51633467560676 
_cell_angle_gamma                 91.4878753255946 
loop_ 
_atom_site_label 
_atom_site_type_symbol 
_atom_site_fract_x 
_atom_site_fract_y 
_atom_site_fract_z 
_atom_site_charge 
O1          O  0.54215106  0.05568223  0.86196001    -0.81100
O2          O  0.52912383  0.06113591  0.63064150    -0.82700
O3          O  0.61706819  0.04592331  0.74138263    -0.79700
O4          O  0.52580857  0.13755583  0.74771715    -0.78100
O5          O  0.45688360  0.13744846  0.74839334    -0.79900
O6          O  0.61434286  0.97702334  0.74645053    -0.80800
O7          O  0.55934776  0.09934224  0.67816270    -0.82200
O8          O  0.57684353  0.08834814  0.80939055    -0.82400
Eu9        Eu  0.54734713  0.06809530  0.74588741     2.39200
O10         O  0.48965167  0.06554682  0.70752682    -0.90000
O11         O  0.54564181  0.01171469  0.78987441    -0.93600
C12         C  0.57086558  0.07934930  0.84723135     1.01100
C13         C  0.54939258  0.09264545  0.64151679     1.00900
C14         C  0.63365586  0.01115331  0.74306605     1.00900
C15         C  0.49188422  0.15559277  0.74820665     0.98800
H16         H  0.57144226  0.00966295  0.68857465     0.28500
O17         O  0.54791077  0.00988138  0.70659163    -1.02300
H18         H  0.49090711  0.09221416  0.80600328     0.28500
O19         O  0.49037473  0.06829108  0.79017126    -1.04900
O20         O  0.44585236  0.95613355  0.63949576    -0.82100
O21         O  0.43424267  0.97144793  0.87036585    -0.81600
O22         O  0.56225801  0.92187909  0.68962535    -0.80100
O23         O  0.41263550  0.09083303  0.68357815    -0.83400
O24         O  0.40637517  0.08532131  0.81511910    -0.81300
O25         O  0.57622022  0.93749854  0.81562391    -0.79900
O26         O  0.45199107  0.88223220  0.76126072    -0.81500
O27         O  0.36110879  0.97459728  0.75515264    -0.83400
O28         O  0.52092946  0.88393514  0.75920358    -0.80100
O29         O  0.36098015  0.04353479  0.75274066    -0.82800
O30         O  0.53194374  0.95621384  0.63842448    -0.78500
O31         O  0.54126988  0.96763849  0.86635363    -0.78600
O32         O  0.44258683  0.05672959  0.86589531    -0.78200
O33         O  0.44462096  0.05497038  0.63479571    -0.81700
O34         O  0.41162755  0.92260119  0.69179511    -0.81100
O35         O  0.39928550  0.93790543  0.82259358    -0.79400
Eu36       Eu  0.48916219  0.00795876  0.66848721     2.39800
Eu37       Eu  0.48987864  0.01079300  0.83440284     2.39600
Eu38       Eu  0.54458632  0.95373147  0.75236916     2.38400
Eu39       Eu  0.43254511  0.06642103  0.74985565     2.39900
Eu40       Eu  0.43050401  0.95194884  0.75596837     2.39800
O41         O  0.43352856  0.00999324  0.79330345    -0.93900
O42         O  0.48746149  0.95240369  0.71348593    -0.92800
C43         C  0.42163429  0.92796041  0.65409595     1.01300
C44         C  0.40411384  0.94920609  0.85905313     1.00000
C45         C  0.55370501  0.92731679  0.65228176     0.99400
C46         C  0.42115420  0.08290128  0.64664040     1.01400
C47         C  0.41394619  0.07870150  0.85250680     1.00300
C48         C  0.57061355  0.94633474  0.85275920     0.99200
C49         C  0.48645116  0.86514190  0.76102278     0.99200
C50         C  0.34287909  0.00847155  0.75418445     1.01900
H51         H  0.48757248  0.92818062  0.81527741     0.29200
O52         O  0.48784420  0.95157073  0.79700245    -1.06000
H53         H  0.40675834  0.00744850  0.69449391     0.31300
O54         O  0.43056485  0.00816877  0.71069470    -1.08600
C55         C  0.67124476  0.23970002  0.49718977     0.85500
C56         C  0.64664240  0.22075906  0.53313988    -0.54800
C57         C  0.60633448  0.21662654  0.52687800     0.08400
C58         C  0.59376184  0.23356207  0.48505695     0.19300
C59         C  0.66005702  0.21307398  0.46186497    -0.55500
C60         C  0.61956645  0.20964675  0.45513666     0.08500
C61         C  0.65187713  0.28010916  0.48811898    -0.55000
C62         C  0.61177289  0.27742637  0.48116495     0.09100
H63         H  0.65961454  0.20690463  0.55959247     0.13600
H64         H  0.56078309  0.23172042  0.48033010    -0.00700
H65         H  0.68259386  0.19676822  0.44510299     0.13900
H66         H  0.66888210  0.30863204  0.48638281     0.13700
O67         O  0.53724713  0.06125132  0.36118919    -0.81100
O68         O  0.54746121  0.04859594  0.13161738    -0.82700
O69         O  0.62204144  0.04417568  0.24722041    -0.79700
O70         O  0.53035308  0.13619150  0.23957677    -0.78100
O71         O  0.46142264  0.13441477  0.24374328    -0.79900
O72         O  0.62062037  0.97524850  0.24773977    -0.80800
O73         O  0.58443341  0.08089842  0.17895706    -0.82200
O74         O  0.57225331  0.09455815  0.30914154    -0.82400
Eu75       Eu  0.55229543  0.06600107  0.24522224     2.39200
O76         O  0.49460381  0.06670431  0.20467141    -0.90000
O77         O  0.55172941  0.00912790  0.28993911    -0.93600
C78         C  0.56173191  0.08937982  0.34669433     1.01100
C79         C  0.57821605  0.07024853  0.14251294     1.00900
C80         C  0.63942840  0.00984518  0.24715053     1.00900
C81         C  0.49584552  0.15337581  0.24090323     0.98800
H82         H  0.57437792  0.00660140  0.19086239     0.28500
O83         O  0.55014328  0.00779095  0.20738781    -1.02300
H84         H  0.49524646  0.08944796  0.30238196     0.28500
O85         O  0.49508365  0.06479702  0.28770273    -1.04900
O86         O  0.44229285  0.96123630  0.13820444    -0.82100
O87         O  0.45202090  0.95546536  0.37021113    -0.81600
O88         O  0.57434514  0.92900677  0.18450132    -0.80100
O89         O  0.40911512  0.08150120  0.18391577    -0.83400
O90         O  0.41855696  0.09333999  0.31327942    -0.81300
O91         O  0.57317991  0.92695570  0.31524930    -0.79900
O92         O  0.45740306  0.88021942  0.25248545    -0.81500
O93         O  0.36528104  0.97195177  0.25981433    -0.83400
O94         O  0.52630929  0.88042281  0.25252977    -0.80100
O95         O  0.36750119  0.04090479  0.25502365    -0.82800
O96         O  0.53911507  0.96106552  0.13503979    -0.78500
O97         O  0.53992823  0.96156407  0.36418499    -0.78600
O98         O  0.44986309  0.05956389  0.36429767    -0.78200
O99         O  0.44246896  0.04921072  0.13366702    -0.81700
O100        O  0.40604618  0.93018798  0.19074926    -0.81100
O101        O  0.42028846  0.91830711  0.32269210    -0.79400
Eu102      Eu  0.49294422  0.00717482  0.16722256     2.39800
Eu103      Eu  0.49339127  0.00882414  0.33277915     2.39600
Eu104      Eu  0.55003435  0.95118073  0.25021901     2.38400
Eu105      Eu  0.43767805  0.06416815  0.24917236     2.39900
Eu106      Eu  0.43499946  0.94944229  0.25513570     2.39800
O107        O  0.43441465  0.00755991  0.29450415    -0.93900
O108        O  0.49190877  0.94926227  0.21081193    -0.92800
C109        C  0.41284541  0.93842147  0.15281413     1.01300
C110        C  0.43052043  0.92460623  0.35937829     1.00000
C111        C  0.56664825  0.93717578  0.14727900     0.99400
C112        C  0.41417095  0.07195690  0.14676868     1.01400
C113        C  0.42733557  0.08801799  0.35064851     1.00300
C114        C  0.56425287  0.93427957  0.35223478     0.99200
C115        C  0.49141364  0.86229596  0.25231154     0.99200
C116        C  0.34837758  0.00658392  0.25824113     1.01900
H117        H  0.49416941  0.92734899  0.30975857     0.29200
O118        O  0.49322818  0.95152093  0.29296613    -1.06000
H119        H  0.41232694  0.00584343  0.19675425     0.31300
O120        O  0.43684380  0.00621414  0.21173475    -1.08600
C121        C  0.26049705  0.82597189  0.00674709     0.85500
C122        C  0.27572724  0.84991422  0.96889277    -0.54800
C123        C  0.28007107  0.89058122  0.97333670     0.08400
C124        C  0.26693459  0.90394573  0.01600844     0.19300
C125        C  0.29041105  0.83832550  0.03909372    -0.55500
C126        C  0.29379724  0.87892749  0.04401337     0.08500
C127        C  0.22078619  0.84505074  0.01878974    -0.55000
C128        C  0.22358611  0.88551461  0.02389065     0.09100
H129        H  0.28827261  0.83588000  0.94258999     0.13600
H130        H  0.26958927  0.93704386  0.02001947    -0.00700
H131        H  0.30827986  0.81687772  0.05587319     0.13900
H132        H  0.19252564  0.82782457  0.02272260     0.13700
C133        C  0.71994164  0.82991337  0.99363774     0.85500
C134        C  0.68938468  0.83886640  0.02753268    -0.54800
C135        C  0.68138848  0.87882877  0.03120187     0.08400
C136        C  0.70460838  0.90642258  0.99989114     0.19300
C137        C  0.70156702  0.84931746  0.95566497    -0.55500
C138        C  0.69285606  0.88901033  0.95920292     0.08500
C139        C  0.75720163  0.85639743  0.00182809    -0.55000
C140        C  0.74932812  0.89629514  0.00522770     0.09100
H141        H  0.67440581  0.81507528  0.04601751     0.13600
H142        H  0.69897235  0.93913199  0.00210535    -0.00700
H143        H  0.69112971  0.83294341  0.93006587     0.13900
H144        H  0.78721860  0.84448935  0.00503749     0.13700
C145        C  0.66872328  0.77862614  0.50701202     0.85500
C146        C  0.65954514  0.80849946  0.47241804    -0.54800
C147        C  0.61973874  0.81765128  0.46923091     0.08400
C148        C  0.59261723  0.79635263  0.50236844     0.19300
C149        C  0.65141767  0.79890808  0.54465525    -0.55500
C150        C  0.61192124  0.80882280  0.54207396     0.08500
C151        C  0.64075453  0.74199231  0.50095869    -0.55000
C152        C  0.60108482  0.75118272  0.49841553     0.09100
H153        H  0.68340995  0.82211878  0.45318642     0.13600
H154        H  0.56000873  0.80250128  0.50126136    -0.00700
H155        H  0.66913151  0.80912878  0.56946627     0.13900
H156        H  0.65151561  0.71148322  0.49819924     0.13700
C157        C  0.26317985  0.18875182  0.00375995     0.85500
C158        C  0.28317797  0.17047331  0.04127205    -0.54800
C159        C  0.29273082  0.13066041  0.03843795     0.08400
C160        C  0.28013172  0.11253471  0.99819307     0.19300
C161        C  0.29326366  0.18020904  0.96933284    -0.55500
C162        C  0.30181756  0.14054632  0.96657906     0.08500
C163        C  0.22638627  0.16135900  0.99679128    -0.55000
C164        C  0.23503255  0.12165952  0.99358767     0.09100
H165        H  0.29407316  0.18856279  0.06550163     0.13600
H166        H  0.28701650  0.08014989  0.99512572    -0.00700
H167        H  0.30731922  0.20344348  0.94940905     0.13900
H168        H  0.19608833  0.17262588  0.99374964     0.13700
C169        C  0.72297116  0.19113480  0.99620933     0.85500
C170        C  0.69444837  0.17987899  0.96223111    -0.54800
C171        C  0.69071330  0.13940924  0.95587763     0.08400
C172        C  0.71606955  0.11359789  0.98475372     0.19300
C173        C  0.70613503  0.16647998  0.03309576    -0.55500
C174        C  0.70153894  0.12620958  0.02726272     0.08500
C175        C  0.76291405  0.17178969  0.98521014    -0.55000
C176        C  0.75980647  0.13153927  0.97875277     0.09100
H177        H  0.67745565  0.20225301  0.94573025     0.13600
H178        H  0.71366728  0.08059361  0.98021602    -0.00700
H179        H  0.69342067  0.17941800  0.05996776     0.13900
H180        H  0.79138850  0.18876901  0.98231266     0.13700
C181        C  0.30976245  0.23533324  0.49383777     0.85500
C182        C  0.32849776  0.21690980  0.45598479    -0.54800
C183        C  0.36856425  0.20893638  0.45865772     0.08400
C184        C  0.38673425  0.22183600  0.49891147     0.19300
C185        C  0.32015924  0.20510078  0.52775325    -0.55500
C186        C  0.36051449  0.19812237  0.53123431     0.08500
C187        C  0.33546365  0.27316617  0.50122322    -0.55000
C188        C  0.37553983  0.26632991  0.50409301     0.09100
H189        H  0.31095478  0.20567112  0.43144793     0.13600
H190        H  0.41967919  0.21773543  0.50006327    -0.00700
H191        H  0.29669633  0.18968707  0.54610345     0.13900
H192        H  0.32282637  0.30282837  0.50471362     0.13700
C193        C  0.30833529  0.77697519  0.50533839     0.85500
C194        C  0.31972930  0.80518020  0.53943564    -0.54800
C195        C  0.36030195  0.80932493  0.54547599     0.08400
C196        C  0.38594761  0.78458227  0.51622284     0.19300
C197        C  0.33237520  0.79486865  0.46841933    -0.55500
C198        C  0.37275036  0.79987537  0.47402593     0.08500
C199        C  0.32825192  0.73717675  0.51579505    -0.55000
C200        C  0.36846308  0.74067061  0.52206025     0.09100
H201        H  0.29728152  0.82178054  0.55600660     0.13600
H202        H  0.41898426  0.78694229  0.52048332    -0.00700
H203        H  0.31877701  0.80806562  0.44196742     0.13900
H204        H  0.31157972  0.70851597  0.51888952     0.13700
O205        O  0.86044968  0.75599889  0.53258976    -0.81100
O206        O  0.02447173  0.75984395  0.37146114    -0.82700
O207        O  0.91168634  0.82260836  0.41613447    -0.79700
O208        O  0.90614250  0.69261843  0.42095156    -0.78100
O209        O  0.94152137  0.64177107  0.45040461    -0.79900
O210        O  0.94122383  0.87228978  0.45258045    -0.80800
O211        O  0.95555309  0.75826277  0.37162103    -0.82200
O212        O  0.86039479  0.75784520  0.46377970    -0.82400
Eu213      Eu  0.93180367  0.75746406  0.44223104     2.39200
O214        O  0.99023037  0.71855116  0.43976153    -0.90000
O215        O  0.92935453  0.79636057  0.50058554    -0.93600
C216        C  0.84235933  0.75777376  0.49870300     1.01100
C217        C  0.99045289  0.75856787  0.35350032     1.00900
C218        C  0.91906730  0.85985351  0.42365346     1.00900
C219        C  0.91312429  0.65511658  0.42802708     0.98800
H220        H  0.98736955  0.81737425  0.41898400     0.28500
O221        O  0.98816184  0.80062040  0.44320592    -1.02300
H222        H  0.90684975  0.69668039  0.49707882     0.28500
O223        O  0.93117281  0.71317567  0.49802344    -1.04900
O224        O  0.11630281  0.76828312  0.46420988    -0.82100
O225        O  0.94986336  0.74648235  0.62694876    -0.81600
O226        O  0.02712233  0.87916911  0.44721218    -0.80100
O227        O  0.04040086  0.64717443  0.44997275    -0.83400
O228        O  0.93641383  0.63540367  0.53816940    -0.81300
O229        O  0.94303435  0.86651644  0.55396177    -0.79900
O230        O  0.06066608  0.81892329  0.58715409    -0.81500
O231        O  0.07236089  0.68946893  0.57126360    -0.83400
O232        O  0.02962963  0.87027609  0.55343082    -0.80100
O233        O  0.04045440  0.63936585  0.53735104    -0.82800
O234        O  0.06013707  0.83215123  0.41062542    -0.78500
O235        O  0.90935691  0.81347335  0.58717598    -0.78600
O236        O  0.89951133  0.68240611  0.57103998    -0.78200
O237        O  0.07720888  0.70056904  0.42092276    -0.81700
O238        O  0.11408152  0.76199614  0.53299917    -0.81100
O239        O  0.01877470  0.75013810  0.62490310    -0.79400
Eu240      Eu  0.04672437  0.76369468  0.44088130     2.39800
Eu241      Eu  0.92912129  0.75035837  0.55648935     2.39600
Eu242      Eu  0.98719150  0.84004303  0.50067971     2.38400
Eu243      Eu  0.98898793  0.67348605  0.49657610     2.39900
Eu244      Eu  0.04360496  0.75536373  0.55519552     2.39800
O245        O  0.98712240  0.71016376  0.55674499    -0.93900
O246        O  0.04679095  0.80224918  0.49957172    -0.92800
C247        C  0.13324182  0.76587384  0.49878025     1.01300
C248        C  0.98441960  0.74812924  0.64396263     1.00000
C249        C  0.04898666  0.86874071  0.41645111     0.99400
C250        C  0.07012283  0.66250304  0.42803333     1.01400
C251        C  0.90594119  0.64587942  0.56038713     1.00300
C252        C  0.91930097  0.85127523  0.58235099     0.99200
C253        C  0.05142087  0.85631760  0.58239390     0.99200
C254        C  0.06822194  0.65241364  0.56078583     1.01900
H255        H  0.98537316  0.80740769  0.57997012     0.29200
O256        O  0.98587613  0.79315631  0.55510979    -1.06000
H257        H  0.06920321  0.70431008  0.49624146     0.31300
O258        O  0.04449396  0.71899793  0.49669941    -1.08600
O259        O  0.86316677  0.24871074  0.53893520    -0.81100
O260        O  0.02667910  0.26784218  0.37364631    -0.82700
O261        O  0.90415649  0.32218584  0.42924674    -0.79700
O262        O  0.91849633  0.19341687  0.41551441    -0.78100
O263        O  0.95108073  0.14235270  0.44797789    -0.79900
O264        O  0.93768939  0.37280995  0.46092450    -0.80800
O265        O  0.95783508  0.26347894  0.37649628    -0.82200
O266        O  0.86461631  0.25379151  0.47007036    -0.82400
Eu267      Eu  0.93458533  0.25771144  0.44644120     2.39200
O268        O  0.99216558  0.21948164  0.44568019    -0.90000
O269        O  0.93493903  0.29521231  0.50430518    -0.93600
C270        C  0.84588920  0.25101853  0.50454420     1.01100
C271        C  0.99192606  0.26649593  0.35708230     1.00900
C272        C  0.90903907  0.35943715  0.43861602     1.00900
C273        C  0.92853768  0.15621286  0.41969735     0.98800
H274        H  0.99087333  0.32135343  0.42006302     0.28500
O275        O  0.99099873  0.30315645  0.44355280    -1.02300
H276        H  0.90888386  0.19394744  0.50288175     0.28500
O277        O  0.93240184  0.21182011  0.50281436    -1.04900
O278        O  0.11817341  0.25797924  0.46436883    -0.82100
O279        O  0.95608121  0.25339013  0.63028723    -0.81600
O280        O  0.04425448  0.37783573  0.46275689    -0.80100
O281        O  0.03658931  0.14627130  0.44859081    -0.83400
O282        O  0.95152209  0.13699034  0.55516462    -0.81300
O283        O  0.93681769  0.36759231  0.54682624    -0.79900
O284        O  0.07284747  0.32185319  0.57882662    -0.81500
O285        O  0.06715715  0.19128376  0.58415908    -0.83400
O286        O  0.03767407  0.37266994  0.54904187    -0.80100
O287        O  0.03864973  0.14121608  0.54745392    -0.82800
O288        O  0.08085364  0.32986785  0.43131063    -0.78500
O289        O  0.90394443  0.31488193  0.58123223    -0.78600
O290        O  0.92059565  0.18449180  0.59292125    -0.78200
O291        O  0.06631562  0.19948634  0.41202820    -0.81700
O292        O  0.11811092  0.25715839  0.53324418    -0.81100
O293        O  0.02496426  0.25415300  0.62945804    -0.79400
Eu294      Eu  0.04868963  0.26274190  0.44338265     2.39800
Eu295      Eu  0.93327092  0.25162004  0.56088069     2.39600
Eu296      Eu  0.98999229  0.34081513  0.50282366     2.38400
Eu297      Eu  0.99180646  0.17376531  0.50081878     2.39900
Eu298      Eu  0.04746489  0.25676315  0.55802571     2.39800
O299        O  0.99107274  0.21345168  0.55798787    -0.93900
O300        O  0.04691620  0.30038728  0.50149979    -0.92800
C301        C  0.13618473  0.25689703  0.49828502     1.01300
C302        C  0.99022221  0.25367712  0.64803079     1.00000
C303        C  0.07525512  0.36657557  0.44180380     0.99400
C304        C  0.05846554  0.16157000  0.41885972     1.01400
C305        C  0.93078680  0.14785303  0.58645817     1.00300
C306        C  0.90890778  0.35261198  0.57124976     0.99200
C307        C  0.06569678  0.35936430  0.57200161     0.99200
C308        C  0.06076253  0.15395969  0.57620577     1.01900
H309        H  0.98919948  0.31260439  0.58441827     0.29200
O310        O  0.98964577  0.29679947  0.56047432    -1.06000
H311        H  0.07297124  0.20126758  0.49913164     0.31300
O312        O  0.04919045  0.21749063  0.49990314    -1.08600
C313        C  0.75692563  0.50145186  0.68200474     0.85500
C314        C  0.78341967  0.46561247  0.67135128    -0.54800
C315        C  0.78764195  0.45927184  0.63088293     0.08400
C316        C  0.76456426  0.48976716  0.60470892     0.19300
C317        C  0.77689235  0.53715084  0.65789792    -0.55500
C318        C  0.78182276  0.53118642  0.61774710     0.08500
C319        C  0.71689855  0.49304078  0.66188538    -0.55000
C320        C  0.72039059  0.48628019  0.62182159     0.09100
H321        H  0.79929713  0.44844948  0.69406423     0.13600
H322        H  0.76691563  0.48528367  0.57176474    -0.00700
H323        H  0.79121502  0.56298984  0.67138079     0.13900
H324        H  0.68809483  0.49146325  0.67835263     0.13700
C325        C  0.21911784  0.51087344  0.68217161     0.85500
C326        C  0.19885947  0.54797268  0.66312379    -0.54800
C327        C  0.18921094  0.54447242  0.62333506     0.08400
C328        C  0.20188909  0.50372635  0.60620237     0.19300
C329        C  0.18917747  0.47594424  0.67432345    -0.55500
C330        C  0.18017787  0.47244594  0.63476202     0.08500
C331        C  0.25581507  0.50360437  0.65485020    -0.55000
C332        C  0.24704715  0.49955644  0.61535812     0.09100
H333        H  0.18823533  0.57251955  0.68083113     0.13600
H334        H  0.19523990  0.49980041  0.57395144    -0.00700
H335        H  0.17527314  0.45652548  0.69804401     0.13900
H336        H  0.28622675  0.50120425  0.66600144     0.13700
C337        C  0.81263452  0.01071782  0.26814378     0.85500
C338        C  0.82283173  0.97641930  0.29814367    -0.54800
C339        C  0.86257308  0.97522156  0.30702225     0.08400
C340        C  0.88898807  0.00832907  0.28554297     0.19300
C341        C  0.82894004  0.04879830  0.28848445    -0.55500
C342        C  0.86897621  0.04784987  0.29831566     0.08500
C343        C  0.84048346  0.00532447  0.23154578    -0.55000
C344        C  0.88019376  0.00367298  0.24049799     0.09100
H345        H  0.80056611  0.95569691  0.31252103     0.13600
H346        H  0.92149886  0.00610305  0.29194819    -0.00700
H347        H  0.80902857  0.07210359  0.29832251     0.13900
H348        H  0.82955910  0.00183942  0.20121090     0.13700
C349        C  0.80760786  0.00120425  0.73070525     0.85500
C350        C  0.83204868  0.03755326  0.71247552    -0.54800
C351        C  0.87247689  0.03188320  0.70910625     0.08400
C352        C  0.88524495  0.99001859  0.72600274     0.19300
C353        C  0.81968330  0.96623602  0.70398745    -0.55500
C354        C  0.86023893  0.95987772  0.70155042     0.08500
C355        C  0.82613255  0.99189014  0.77139838    -0.55000
C356        C  0.86639607  0.98562346  0.76946139     0.09100
H357        H  0.81876159  0.06363266  0.69810017     0.13600
H358        H  0.91829717  0.98559106  0.72464456    -0.00700
H359        H  0.79781054  0.94923736  0.68704911     0.13900
H360        H  0.80855109  0.98981818  0.79954149     0.13700
C361        C  0.75813197  0.50495257  0.32115097     0.85500
C362        C  0.78754671  0.53986278  0.33050482    -0.54800
C363        C  0.79635968  0.54193170  0.37020327     0.08400
C364        C  0.77533466  0.50924694  0.39748104     0.19300
C365        C  0.77894808  0.46740244  0.33871430    -0.55500
C366        C  0.78846842  0.46943793  0.37861463     0.08500
C367        C  0.72130411  0.51071744  0.34888824    -0.55000
C368        C  0.73018647  0.51341828  0.38859996     0.09100
H369        H  0.80128965  0.56042252  0.30766223     0.13600
H370        H  0.78213516  0.51187934  0.42988471    -0.00700
H371        H  0.78982093  0.44350859  0.32016377     0.13900
H372        H  0.69093549  0.51382273  0.33783858     0.13700
C373        C  0.22144971  0.51223365  0.32003093     0.85500
C374        C  0.20553336  0.47529057  0.34515352    -0.54800
C375        C  0.19988693  0.48164110  0.38532065     0.08400
C376        C  0.21310084  0.52490131  0.39723198     0.19300
C377        C  0.19168714  0.54539983  0.33017476    -0.55500
C378        C  0.18742884  0.55211523  0.37027700     0.08500
C379        C  0.26080080  0.52472421  0.33976436    -0.55000
C380        C  0.25695838  0.53184864  0.37979327     0.09100
H381        H  0.19466843  0.44760187  0.33241340     0.13600
H382        H  0.20944312  0.53038826  0.42995992    -0.00700
H383        H  0.17469305  0.56161236  0.30757374     0.13900
H384        H  0.28946923  0.52802358  0.32318951     0.13700
C385        C  0.17362952  0.01425990  0.26974275     0.85500
C386        C  0.16239975  0.04878786  0.29735290    -0.54800
C387        C  0.12201485  0.05502275  0.30096250     0.08400
C388        C  0.09605032  0.02607755  0.27626695     0.19300
C389        C  0.14908160  0.97778248  0.28788103    -0.55500
C390        C  0.10863399  0.98384636  0.29238359     0.08500
C391        C  0.15419950  0.02427657  0.22956875    -0.55000
C392        C  0.11396940  0.03088687  0.23231598     0.09100
H393        H  0.18453544  0.06589439  0.31392310     0.13600
H394        H  0.06311566  0.03101930  0.27911078    -0.00700
H395        H  0.16242056  0.95119502  0.30114612     0.13900
H396        H  0.17120300  0.02641092  0.20108963     0.13700
C397        C  0.16941330  0.00157413  0.73026828     0.85500
C398        C  0.15073562  0.96308326  0.71205599    -0.54800
C399        C  0.11107351  0.96622409  0.70177995     0.08400
C400        C  0.09342518  0.00741554  0.71197425     0.19300
C401        C  0.16138306  0.03497809  0.69856224    -0.55500
C402        C  0.12189532  0.03781283  0.68906081     0.08500
C403        C  0.14155874  0.01034216  0.76621262    -0.55000
C404        C  0.10205431  0.01363298  0.75684196     0.09100
H405        H  0.16792878  0.93729318  0.70354916     0.13600
H406        H  0.06115251  0.01064439  0.70467747    -0.00700
H407        H  0.18491221  0.05454371  0.68457765     0.13900
H408        H  0.15233871  0.01420853  0.79654445     0.13700
O409        O  0.74309100  0.63854124  0.96520792    -0.81100
O410        O  0.73698099  0.47420752  0.12934902    -0.82700
O411        O  0.67758380  0.59037680  0.08170345    -0.79700
O412        O  0.80880877  0.59232593  0.07589209    -0.78100
O413        O  0.85835773  0.55563713  0.04604560    -0.79900
O414        O  0.62743834  0.56113157  0.04545128    -0.80800
O415        O  0.74078542  0.54313575  0.12843798    -0.82200
O416        O  0.74241324  0.63834609  0.03408006    -0.82400
Eu417      Eu  0.74244538  0.56744130  0.05725610     2.39200
O418        O  0.78068493  0.50865217  0.05914031    -0.90000
O419        O  0.70284179  0.56969281  0.99916291    -0.93600
C420        C  0.74196794  0.65642846  0.99911510     1.01100
C421        C  0.73876343  0.50824860  0.14705408     1.00900
C422        C  0.64028018  0.58392404  0.07353078     1.00900
C423        C  0.84597320  0.58450665  0.06809353     0.98800
H424        H  0.68191962  0.51370891  0.08141587     0.28500
O425        O  0.69824929  0.51206504  0.05709692    -1.02300
H426        H  0.80165988  0.59141476  0.00067319     0.28500
O427        O  0.78481361  0.56729027  0.00022749    -1.04900
O428        O  0.72895142  0.38308940  0.03760124    -0.82100
O429        O  0.75032317  0.54686785  0.87249962    -0.81600
O430        O  0.61980821  0.47561028  0.05601721    -0.80100
O431        O  0.85043071  0.45698787  0.04629337    -0.83400
O432        O  0.86117948  0.56221554  0.95870801    -0.81300
O433        O  0.63125124  0.55833607  0.94737760    -0.79900
O434        O  0.67561294  0.43878987  0.91551526    -0.81500
O435        O  0.80395811  0.42467213  0.92690347    -0.83400
O436        O  0.62494203  0.46955944  0.95010301    -0.80100
O437        O  0.85499940  0.45780599  0.95841374    -0.82800
O438        O  0.66679779  0.44073122  0.09123935    -0.78500
O439        O  0.68359837  0.59175318  0.91295349    -0.78600
O440        O  0.81418037  0.60011983  0.92650626    -0.78200
O441        O  0.79766248  0.42395806  0.08049236    -0.81700
O442        O  0.73350916  0.38506708  0.96875473    -0.81100
O443        O  0.74561882  0.47795863  0.87542103    -0.79400
Eu444      Eu  0.73437451  0.45301592  0.05965312     2.39800
Eu445      Eu  0.74683933  0.56967368  0.94212091     2.39600
Eu446      Eu  0.65793743  0.51299360  0.00001626     2.38400
Eu447      Eu  0.82385177  0.50927858  0.00095179     2.39900
Eu448      Eu  0.74002446  0.45515770  0.94543276     2.39800
O449        O  0.78591537  0.51106562  0.94174953    -0.93900
O450        O  0.69445201  0.45266797  0.00172556    -0.92800
C451        C  0.73052956  0.36605066  0.00314711     1.01300
C452        C  0.74829943  0.51213862  0.85599256     1.00000
C453        C  0.63057488  0.45339503  0.08658304     0.99400
C454        C  0.83536812  0.42903578  0.07066950     1.01400
C455        C  0.85071035  0.59320977  0.93695418     1.00300
C456        C  0.64583883  0.58234433  0.91883394     0.99200
C457        C  0.63837486  0.44770345  0.92120352     0.99200
C458        C  0.84130996  0.42951365  0.93599796     1.01900
H459        H  0.68803289  0.51412524  0.91962515     0.29200
O460        O  0.70288176  0.51354490  0.94422517    -1.06000
H461        H  0.79229299  0.42916158  0.00343975     0.31300
O462        O  0.77787581  0.45406948  0.00306153    -1.08600
O463        O  0.25244913  0.63472140  0.96482174    -0.81100
O464        O  0.23001045  0.46971451  0.12870245    -0.82700
O465        O  0.17701384  0.59412255  0.07129474    -0.79700
O466        O  0.30618666  0.57687620  0.08667817    -0.78100
O467        O  0.35706321  0.54537307  0.05322680    -0.79900
O468        O  0.12594626  0.56039509  0.04042002    -0.80800
O469        O  0.23521234  0.53863262  0.12649195    -0.82200
O470        O  0.24784767  0.63214945  0.03364901    -0.82400
Eu471      Eu  0.24123613  0.56209052  0.05639460     2.39200
O472        O  0.27861585  0.50404988  0.05627813    -0.90000
O473        O  0.20327849  0.56284787  0.99867282    -0.93600
C474        C  0.25092561  0.65141460  0.99942559     1.01100
C475        C  0.23193706  0.50424712  0.14558609     1.00900
C476        C  0.13967486  0.58937760  0.06198363     1.00900
C477        C  0.34344357  0.56742677  0.08183652     0.98800
H478        H  0.17708490  0.50632654  0.08208645     0.28500
O479        O  0.19518792  0.50614617  0.05876395    -1.02300
H480        H  0.30532807  0.58785147  0.00022263     0.28500
O481        O  0.28702068  0.56472123  0.00011588    -1.04900
O482        O  0.23779757  0.37868911  0.03673195    -0.82100
O483        O  0.24426753  0.54494770  0.87255967    -0.81600
O484        O  0.11988866  0.45450444  0.04006861    -0.80100
O485        O  0.35133626  0.45914728  0.05305886    -0.83400
O486        O  0.36035710  0.54339217  0.94499065    -0.81300
O487        O  0.13055964  0.56138910  0.95533170    -0.79900
O488        O  0.17658521  0.42448736  0.92279302    -0.81500
O489        O  0.30543643  0.43092117  0.91630296    -0.83400
O490        O  0.12641345  0.45985978  0.95292770    -0.80100
O491        O  0.35558726  0.46036806  0.95227973    -0.82800
O492        O  0.16731199  0.41698430  0.07183314    -0.78500
O493        O  0.18339496  0.59593345  0.92299460    -0.78600
O494        O  0.31278893  0.57584781  0.90829429    -0.78200
O495        O  0.29832375  0.43112444  0.09098967    -0.81700
O496        O  0.23982498  0.38001085  0.96781518    -0.81100
O497        O  0.24312389  0.47600517  0.87341465    -0.79400
Eu498      Eu  0.23488232  0.44795397  0.05886789     2.39800
Eu499      Eu  0.24662075  0.56522856  0.94228883     2.39600
Eu500      Eu  0.15752667  0.50791283  0.99929333     2.38400
Eu501      Eu  0.32417307  0.50481595  0.00123975     2.39900
Eu502      Eu  0.24087985  0.45081323  0.94406971     2.39800
O503        O  0.28405185  0.50696436  0.94463297    -0.93900
O504        O  0.19733897  0.45066220  0.00049013    -0.92800
C505        C  0.23903936  0.36132003  0.00253570     1.01300
C506        C  0.24377725  0.51090016  0.85490037     1.00000
C507        C  0.13068477  0.42339773  0.06140678     0.99400
C508        C  0.33628627  0.43838307  0.08371439     1.01400
C509        C  0.34918485  0.56435985  0.91374859     1.00300
C510        C  0.14555841  0.59025600  0.93198740     0.99200
C511        C  0.13926542  0.43174042  0.93001347     0.99200
C512        C  0.34274697  0.43851913  0.92344702     1.01900
H513        H  0.18534230  0.50982185  0.91786296     0.29200
O514        O  0.20123909  0.50895523  0.94181917    -1.06000
H515        H  0.29621497  0.42353304  0.00294837     0.31300
O516        O  0.28019981  0.44750817  0.00237604    -1.08600
C517        C  0.99515622  0.74117830  0.81858430     0.85500
C518        C  0.02980323  0.71308350  0.82957366    -0.54800
C519        C  0.03665635  0.70929345  0.87000129     0.08400
C520        C  0.00774468  0.73417730  0.89590572     0.19300
C521        C  0.95888160  0.72356916  0.84354463    -0.55500
C522        C  0.96531646  0.71875877  0.88370019     0.08500
C523        C  0.00590415  0.78119087  0.83774376    -0.55000
C524        C  0.01298973  0.77804226  0.87784957     0.09100
H525        H  0.04618048  0.69629405  0.80714387     0.13600
H526        H  0.01270954  0.73194499  0.92883379    -0.00700
H527        H  0.93229398  0.71002738  0.83068412     0.13900
H528        H  0.00834143  0.80973653  0.82069990     0.13700
C529        C  0.98709895  0.27909660  0.82081493     0.85500
C530        C  0.94934432  0.29961344  0.83793065    -0.54800
C531        C  0.95126688  0.30937641  0.87771928     0.08400
C532        C  0.99129721  0.29696282  0.89687101     0.19300
C533        C  0.02170161  0.30896696  0.82981348    -0.55500
C534        C  0.02373120  0.31831704  0.86938634     0.08500
C535        C  0.99321860  0.24261687  0.84896343    -0.55000
C536        C  0.99580067  0.25174915  0.88848406     0.09100
H537        H  0.92538210  0.31017138  0.81916642     0.13600
H538        H  0.99395358  0.30384164  0.92921885    -0.00700
H539        H  0.04225381  0.32236181  0.80681430     0.13900
H540        H  0.99635191  0.21213377  0.83832763     0.13700
C541        C  0.49264917  0.69082818  0.76887442     0.85500
C542        C  0.45623322  0.66566319  0.78605412    -0.54800
C543        C  0.46287484  0.62535543  0.79037963     0.08400
C544        C  0.50559360  0.61353544  0.77522659     0.19300
C545        C  0.52704368  0.67980327  0.79695336    -0.55500
C546        C  0.53446085  0.63954402  0.80019706     0.08500
C547        C  0.50349977  0.67209073  0.72877010    -0.55000
C548        C  0.51072250  0.63200911  0.73164026     0.09100
H549        H  0.42910247  0.67832908  0.79866993     0.13600
H550        H  0.51081265  0.58061584  0.77721856    -0.00700
H551        H  0.54319920  0.70229866  0.81388178     0.13900
H552        H  0.50590508  0.68938502  0.70038064     0.13700
C553        C  0.48854986  0.68941221  0.22827392     0.85500
C554        C  0.52333179  0.68029101  0.19901650    -0.54800
C555        C  0.52633896  0.64046501  0.19066047     0.08400
C556        C  0.49399869  0.61287601  0.21267055     0.19300
C557        C  0.45129473  0.67112386  0.20798364    -0.55500
C558        C  0.45355650  0.63094235  0.19953234     0.08500
C559        C  0.49481764  0.66234385  0.26556260    -0.55000
C560        C  0.49787168  0.62250590  0.25768213     0.09100
H561        H  0.54285583  0.70372398  0.18478099     0.13600
H562        H  0.49728114  0.58035036  0.20697252    -0.00700
H563        H  0.42740966  0.68940897  0.19673868     0.13900
H564        H  0.49709424  0.67388288  0.29574846     0.13700
C565        C  0.98262766  0.27796828  0.18281096     0.85500
C566        C  0.01942976  0.29606288  0.15909330    -0.54800
C567        C  0.01446078  0.30022510  0.11859795     0.08400
C568        C  0.97276901  0.28398188  0.10500207     0.19300
C569        C  0.94824121  0.30543769  0.17038203    -0.55500
C570        C  0.94239759  0.30835455  0.12979327     0.08500
C571        C  0.97318591  0.23763480  0.16377320    -0.55000
C572        C  0.96781507  0.24026926  0.12333847     0.09100
H573        H  0.04530997  0.30985979  0.17309958     0.13600
H574        H  0.96893108  0.28583858  0.07189295    -0.00700
H575        H  0.93127904  0.32257826  0.19207796     0.13900
H576        H  0.97064331  0.20923153  0.18105352     0.13700
C577        C  0.99416351  0.73652910  0.18003890     0.85500
C578        C  0.95995000  0.70663449  0.16983113    -0.54800
C579        C  0.95799436  0.69932640  0.12976796     0.08400
C580        C  0.99000472  0.72200070  0.10318981     0.19300
C581        C  0.03216288  0.71724564  0.16186085    -0.55500
C582        C  0.02994714  0.70901596  0.12179677     0.08500
C583        C  0.98749451  0.77417313  0.15333200    -0.55000
C584        C  0.98509376  0.76665360  0.11332921     0.09100
H585        H  0.93967381  0.69185519  0.19226816     0.13600
H586        H  0.98772499  0.71605796  0.07055445    -0.00700
H587        H  0.05649523  0.70589221  0.17968342     0.13900
H588        H  0.98426883  0.80415207  0.16519531     0.13700
C589        C  0.49668683  0.32862310  0.77263838     0.85500
C590        C  0.53417568  0.34627361  0.79318941    -0.54800
C591        C  0.53151180  0.38612702  0.80167676     0.08400
C592        C  0.49218485  0.40527167  0.78787995     0.19300
C593        C  0.46157204  0.33872691  0.80163004    -0.55500
C594        C  0.45894527  0.37893235  0.80937587     0.08500
C595        C  0.49107321  0.35573745  0.73519085    -0.55000
C596        C  0.48837041  0.39560376  0.74310067     0.09100
H597        H  0.55850199  0.32846375  0.80479738     0.13600
H598        H  0.49071688  0.43804594  0.79338328    -0.00700
H599        H  0.44133899  0.31575505  0.81554450     0.13900
H600        H  0.48809630  0.34416667  0.70509029     0.13700
C601        C  0.48801917  0.32892525  0.23260714     0.85500
C602        C  0.45404116  0.34019870  0.20408628    -0.54800
C603        C  0.44727599  0.38051782  0.20096472     0.08400
C604        C  0.47517917  0.40653549  0.22646637     0.19300
C605        C  0.52458426  0.35443831  0.21617290    -0.55500
C606        C  0.51798330  0.39487938  0.21184489     0.08500
C607        C  0.47665257  0.34777012  0.27276638    -0.55000
C608        C  0.46949910  0.38801606  0.26994791     0.09100
H609        H  0.43752475  0.31821514  0.18680454     0.13600
H610        H  0.46963203  0.43940615  0.22372960    -0.00700
H611        H  0.55212620  0.34196384  0.20444764     0.13900
H612        H  0.47405144  0.33048030  0.30113249     0.13700
O613        O  0.55984482  0.41461559  0.44380526    -0.81100
O614        O  0.45337685  0.48992900  0.62995683    -0.82700
O615        O  0.58434260  0.44936424  0.56835535    -0.79700
O616        O  0.46855138  0.38107765  0.53744759    -0.78100
O617        O  0.41640906  0.39650507  0.49601993    -0.79900
O618        O  0.60623554  0.51539004  0.56074049    -0.80800
O619        O  0.49381396  0.43712502  0.61449952    -0.82200
O620        O  0.54914536  0.39134763  0.50909148    -0.82400
Eu621      Eu  0.51301793  0.44269105  0.54314521     2.39200
O622        O  0.44647064  0.46692120  0.54303506    -0.90000
O623        O  0.55492962  0.48559159  0.50184820    -0.93600
C624        C  0.56175250  0.38717710  0.47271405     1.01100
C625        C  0.47283192  0.45769983  0.63927449     1.00900
C626        C  0.61127691  0.47838267  0.57123094     1.00900
C627        C  0.43644413  0.37175492  0.51787271     0.98800
H628        H  0.52393754  0.50728248  0.59397809     0.28500
O629        O  0.51300782  0.50845000  0.56727358    -1.02300
H630        H  0.48747074  0.41697154  0.46608845     0.28500
O631        O  0.48852662  0.44368223  0.47691356    -1.04900
O632        O  0.42099114  0.60440753  0.56063616    -0.82100
O633        O  0.52619683  0.52852923  0.37343018    -0.81600
O634        O  0.54827197  0.57936960  0.59602256    -0.80100
O635        O  0.36096144  0.47123036  0.52007881    -0.83400
O636        O  0.43129994  0.44259691  0.40503696    -0.81300
O637        O  0.61720429  0.54756228  0.48317966    -0.79900
O638        O  0.50621905  0.63822762  0.46605627    -0.81500
O639        O  0.39327222  0.56977544  0.43218997    -0.83400
O640        O  0.55804794  0.62344148  0.50805273    -0.80100
O641        O  0.37121385  0.50389994  0.44071566    -0.82800
O642        O  0.48255147  0.56992908  0.61821641    -0.78500
O643        O  0.60292495  0.50568146  0.43140509    -0.78600
O644        O  0.49740466  0.45064741  0.38364326    -0.78200
O645        O  0.37581244  0.51102504  0.57340985    -0.81700
O646        O  0.43036087  0.62721299  0.49503801    -0.81100
O647        O  0.48408228  0.58040725  0.38746065    -0.79400
Eu648      Eu  0.44682276  0.53325660  0.56776339     2.39800
Eu649      Eu  0.53189346  0.48523710  0.43577599     2.39600
Eu650      Eu  0.55477010  0.55168608  0.52612474     2.38400
Eu651      Eu  0.42270968  0.46788899  0.47614177     2.39900
Eu652      Eu  0.46417173  0.57561089  0.45889940     2.39800
O653        O  0.46568930  0.50981173  0.43520246    -0.93900
O654        O  0.48858462  0.57453512  0.52495778    -0.92800
C655        C  0.41901581  0.63177505  0.53174906     1.01300
C656        C  0.50629860  0.56025184  0.36332407     1.00000
C657        C  0.51917899  0.58189983  0.62282502     0.99400
C658        C  0.35143920  0.48941000  0.55282947     1.01400
C659        C  0.46062137  0.43974247  0.37842421     1.00300
C660        C  0.62711401  0.52776335  0.45153685     0.99200
C661        C  0.53756550  0.64798522  0.48647335     0.99200
C662        C  0.36622944  0.54079680  0.42961758     1.01900
H663        H  0.54861587  0.56976561  0.44199463     0.29200
O664        O  0.53139404  0.55229489  0.45911432    -1.06000
H665        H  0.39600191  0.54426256  0.50323585     0.31300
O666        O  0.42284435  0.53363854  0.50181364    -1.08600
O667        O  0.08704342  0.93840431  0.05812047    -0.81100
O668        O  0.00849375  0.04639679  0.87058542    -0.82700
O669        O  0.05111399  0.91409301  0.93066998    -0.79700
O670        O  0.12066537  0.02800066  0.96105426    -0.78100
O671        O  0.10621401  0.07981362  0.00295149    -0.79900
O672        O  0.98534636  0.89208152  0.94006445    -0.80800
O673        O  0.06171884  0.00595902  0.88515183    -0.82200
O674        O  0.10923979  0.94805244  0.99242171    -0.82400
Eu675      Eu  0.05825111  0.98487698  0.95672765     2.39200
O676        O  0.03380863  0.05150945  0.95712138    -0.90000
O677        O  0.01581771  0.94341154  0.99896021    -0.93600
C678        C  0.11395081  0.93598878  0.02908849     1.01100
C679        C  0.04063619  0.02725456  0.86073003     1.00900
C680        C  0.02200879  0.88715520  0.92847755     1.00900
C681        C  0.13054017  0.05975209  0.98077527     0.98800
H682        H  0.99249353  0.97462660  0.90683890     0.28500
O683        O  0.99192198  0.98534336  0.93359417    -1.02300
H684        H  0.08530832  0.01016950  0.03362264     0.28500
O685        O  0.05846149  0.00922512  0.02302387    -1.04900
O686        O  0.89567623  0.07746774  0.94126182    -0.82100
O687        O  0.97388948  0.97153648  0.12697295    -0.81600
O688        O  0.92004753  0.95006272  0.90587265    -0.80100
O689        O  0.02943538  0.13720667  0.98088409    -0.83400
O690        O  0.06113935  0.06743408  0.09505414    -0.81300
O691        O  0.95462132  0.88099350  0.01837780    -0.79900
O692        O  0.86364683  0.99121149  0.03579777    -0.81500
O693        O  0.93386213  0.10413100  0.06953605    -0.83400
O694        O  0.87823266  0.93857717  0.99508695    -0.80100
O695        O  0.99958824  0.12640095  0.06012807    -0.82800
O696        O  0.92922843  0.01582415  0.88334868    -0.78500
O697        O  0.99735485  0.89516796  0.06960749    -0.78600
O698        O  0.05250912  0.00143352  0.11684018    -0.78200
O699        O  0.98744433  0.12297121  0.92890740    -0.81700
O700        O  0.87456005  0.06991304  0.00741627    -0.81100
O701        O  0.92185145  0.01361736  0.11296353    -0.79400
Eu702      Eu  0.96672654  0.05147680  0.93343030     2.39800
Eu703      Eu  0.01708744  0.96647803  0.06501693     2.39600
Eu704      Eu  0.94943070  0.94335736  0.97520999     2.38400
Eu705      Eu  0.03474428  0.07508285  0.02400112     2.39900
Eu706      Eu  0.92631059  0.03391016  0.04198547     2.39800
O707        O  0.99258156  0.03262342  0.06537320    -0.93900
O708        O  0.92567492  0.00940266  0.97613268    -0.92800
C709        C  0.86911677  0.08059464  0.97056240     1.01300
C710        C  0.94226033  0.99139611  0.13698425     1.00000
C711        C  0.91705112  0.97920358  0.87900395     0.99400
C712        C  0.00946017  0.14718081  0.94927080     1.01400
C713        C  0.06375893  0.03816864  0.12197971     1.00300
C714        C  0.97481706  0.87103277  0.04987964     0.99200
C715        C  0.85382358  0.95914761  0.01649871     0.99200
C716        C  0.96293401  0.13106252  0.07202664     1.01900
H717        H  0.93265635  0.94957012  0.05932200     0.29200
O718        O  0.94988013  0.96685993  0.04198263    -1.06000
H719        H  0.95766025  0.10182258  0.99822897     0.31300
O720        O  0.96834922  0.07499809  0.99922959    -1.08600
C721        C  0.45803475  0.40957866  0.30590262    -0.14300
C722        C  0.45359085  0.42341787  0.33916982    -0.15900
C723        C  0.47912020  0.42470375  0.71160185    -0.14300
C724        C  0.47304200  0.44328151  0.68056315    -0.15900
C725        C  0.97316051  0.82984182  0.06501535    -0.14300
C726        C  0.97727249  0.79865351  0.08415208    -0.15900
C727        C  0.95840607  0.20386878  0.10165569    -0.14300
C728        C  0.95538413  0.17026390  0.08827024    -0.15900
C729        C  0.50799230  0.57493820  0.32188274    -0.14300
C730        C  0.50464758  0.59329718  0.29006627    -0.15900
C731        C  0.52229019  0.61094004  0.69557139    -0.14300
C732        C  0.52654345  0.59807285  0.66194613    -0.15900
C733        C  0.00459348  0.22055586  0.91806035    -0.14300
C734        C  0.00991906  0.18879203  0.93567567    -0.15900
C735        C  0.02915338  0.84769084  0.91249753    -0.14300
C736        C  0.02462596  0.81407688  0.89933113    -0.15900
C737        C  0.12244253  0.36845445  0.89435746    -0.14400
C738        C  0.10957182  0.40430447  0.91191817     0.07800
C739        C  0.06821933  0.41212055  0.91394370    -0.14400
C740        C  0.04032223  0.38431363  0.89940564    -0.14400
C741        C  0.05322284  0.34799291  0.88360714     0.07800
C742        C  0.09442516  0.34052562  0.88035801    -0.14400
H743        H  0.15412131  0.36138666  0.89230302     0.11800
H744        H  0.05742970  0.43964409  0.92670919     0.11800
H745        H  0.00883871  0.39165828  0.89965242     0.11800
H746        H  0.10479967  0.31282208  0.86758092     0.11800
C747        C  0.11198446  0.35192681  0.08310557    -0.14400
C748        C  0.09974269  0.39131440  0.07307191     0.07800
C749        C  0.05816542  0.39868711  0.07296059    -0.14400
C750        C  0.02984089  0.36800947  0.08475714    -0.14400
C751        C  0.04227056  0.32893785  0.09548463     0.07800
C752        C  0.08365769  0.32122553  0.09402762    -0.14400
H753        H  0.14367738  0.34479889  0.08294820     0.11800
H754        H  0.04762429  0.42858166  0.06547824     0.11800
H755        H  0.99865101  0.37583589  0.08840076     0.11800
H756        H  0.09419653  0.29181396  0.10341856     0.11800
C757        C  0.12526122  0.65164133  0.10057330    -0.14400
C758        C  0.11135946  0.62053005  0.07606602     0.07800
C759        C  0.07111403  0.62112631  0.06361072    -0.14400
C760        C  0.04515738  0.65118472  0.07657464    -0.14400
C761        C  0.05877946  0.68117490  0.10247548     0.07800
C762        C  0.09938393  0.68147720  0.11352887    -0.14400
H763        H  0.15622324  0.65288220  0.11016453     0.11800
H764        H  0.05953169  0.59818605  0.04411934     0.11800
H765        H  0.01405960  0.64990058  0.06751738     0.11800
H766        H  0.11108040  0.70451668  0.13285543     0.11800
C767        C  0.08259639  0.62948427  0.93772597    -0.14400
C768        C  0.11763992  0.62021057  0.91564853     0.07800
C769        C  0.12710775  0.64186015  0.87944262    -0.14400
C770        C  0.10129641  0.67134953  0.86496904    -0.14400
C771        C  0.06585423  0.68029547  0.88678301     0.07800
C772        C  0.05728400  0.65957557  0.92372360    -0.14400
H773        H  0.07508428  0.61391003  0.96621622     0.11800
H774        H  0.15429212  0.63572595  0.86213584     0.11800
H775        H  0.10921862  0.68726662  0.83677645     0.11800
H776        H  0.03042749  0.66568816  0.94144003     0.11800
C777        C  0.41016444  0.44251798  0.88886114    -0.14400
C778        C  0.37263230  0.42259309  0.89505551     0.07800
C779        C  0.36255832  0.38972514  0.87119543    -0.14400
C780        C  0.39032339  0.37589419  0.84291676    -0.15200
C781        C  0.42843023  0.39506421  0.83753863     0.07800
C782        C  0.43750194  0.42930255  0.85993183    -0.14400
H783        H  0.41808253  0.46889391  0.90576727     0.11800
H784        H  0.33329141  0.37453126  0.87455564     0.11800
H785        H  0.38176937  0.35040555  0.82508207     0.11800
H786        H  0.46591167  0.44576871  0.85588394     0.11800
C787        C  0.36690168  0.58320194  0.84119835    -0.14400
C788        C  0.37948591  0.57516773  0.88089027     0.07800
C789        C  0.42088079  0.57805658  0.88851434    -0.14400
C790        C  0.44858365  0.59152157  0.85802484    -0.14400
C791        C  0.43588564  0.60089325  0.81881743     0.07800
C792        C  0.39476548  0.59593990  0.81059150    -0.14400
H793        H  0.33528282  0.58057976  0.83397574     0.11800
H794        H  0.43157684  0.57220943  0.91863614     0.11800
H795        H  0.47932083  0.59776266  0.86614878     0.11800
H796        H  0.38394163  0.60400863  0.78096226     0.11800
C797        C  0.36031067  0.61426201  0.13683396    -0.14400
C798        C  0.37156942  0.58228801  0.11252411     0.07800
C799        C  0.40754032  0.56256989  0.12087912    -0.14400
C800        C  0.43244854  0.57588524  0.15164884    -0.14400
C801        C  0.42323454  0.61061059  0.17323924     0.07800
C802        C  0.38551150  0.62801674  0.16675325    -0.14400
H803        H  0.33195451  0.62911427  0.13254804     0.11800
H804        H  0.41596722  0.53630237  0.10429122     0.11800
H805        H  0.45869578  0.55867176  0.15812849     0.11800
H806        H  0.37503795  0.65262286  0.18451193     0.11800
C807        C  0.40197494  0.40844578  0.10139376    -0.14400
C808        C  0.36458049  0.42328481  0.11370916     0.07800
C809        C  0.35512755  0.42558948  0.15515224    -0.14400
C810        C  0.38270075  0.41299626  0.18383863    -0.14400
C811        C  0.41947159  0.39708205  0.17132649     0.07800
C812        C  0.42894294  0.39477059  0.13004578    -0.14400
H813        H  0.40996429  0.40676215  0.06964465     0.11800
H814        H  0.32670106  0.43771166  0.16527052     0.11800
H815        H  0.37505543  0.41482789  0.21565667     0.11800
H816        H  0.45727456  0.38235485  0.12007456     0.11800
C817        C  0.55924142  0.45094422  0.11758480    -0.14400
C818        C  0.60077986  0.44354907  0.12041475     0.07800
C819        C  0.61465542  0.42788798  0.15737484    -0.14400
C820        C  0.58771541  0.41634277  0.18894136    -0.14400
C821        C  0.54596262  0.41994920  0.18471168     0.07800
C822        C  0.53207096  0.43920368  0.14948283    -0.14400
H823        H  0.54755850  0.46428074  0.09021928     0.11800
H824        H  0.64649606  0.42333827  0.16169415     0.11800
H825        H  0.59936368  0.40204631  0.21588438     0.11800
H826        H  0.50007222  0.44268553  0.14544659     0.11800
C827        C  0.62179679  0.63148039  0.12733107    -0.14400
C828        C  0.61022101  0.60155243  0.10051246     0.07800
C829        C  0.57086491  0.58507212  0.10320412    -0.14400
C830        C  0.54392410  0.59760346  0.13273754    -0.14400
C831        C  0.55560651  0.62664639  0.16016795     0.07800
C832        C  0.59467126  0.64395425  0.15689592    -0.14400
H833        H  0.65206866  0.64462909  0.12606022     0.11800
H834        H  0.56113933  0.56167235  0.08325243     0.11800
H835        H  0.51384805  0.58497805  0.13345838     0.11800
H836        H  0.60446015  0.66659573  0.17762695     0.11800
C837        C  0.62562961  0.63406327  0.86703453    -0.14400
C838        C  0.61754686  0.59764775  0.88878151     0.07800
C839        C  0.58407733  0.57352275  0.87874193    -0.14400
C840        C  0.55867221  0.58588390  0.84812041    -0.14400
C841        C  0.56503108  0.62351892  0.82813154     0.07800
C842        C  0.59942299  0.64706352  0.83726700    -0.14400
H843        H  0.65193067  0.65265280  0.87335265     0.11800
H844        H  0.57806100  0.54450771  0.89395078     0.11800
H845        H  0.53354846  0.56620045  0.84099487     0.11800
H846        H  0.60616481  0.67558082  0.82142299     0.11800
C847        C  0.56910995  0.42589238  0.90003055    -0.14400
C848        C  0.61016286  0.43317094  0.89070484     0.07800
C849        C  0.62476918  0.42645060  0.85123939    -0.14400
C850        C  0.59899267  0.41220390  0.82191683    -0.14400
C851        C  0.55815046  0.40451970  0.83144364     0.07800
C852        C  0.54352667  0.41089191  0.87079984    -0.14400
H853        H  0.55716018  0.43040604  0.93019114     0.11800
H854        H  0.65624480  0.43228063  0.84296509     0.11800
H855        H  0.61096257  0.40676950  0.79194379     0.11800
H856        H  0.51274655  0.40262850  0.87947632     0.11800
C857        C  0.89617985  0.38764283  0.06246121    -0.14400
C858        C  0.86272213  0.39847388  0.08610455     0.07800
C859        C  0.85311293  0.37657168  0.12202315    -0.14400
C860        C  0.87788166  0.34580760  0.13517538    -0.14400
C861        C  0.91260006  0.33617925  0.11251411     0.07800
C862        C  0.92035454  0.35614663  0.07510052    -0.14400
H863        H  0.90319070  0.40300429  0.03377362     0.11800
H864        H  0.82665609  0.38346808  0.14011281     0.11800
H865        H  0.86995027  0.32981743  0.16331865     0.11800
H866        H  0.94575155  0.34855007  0.05601147     0.11800
C867        C  0.90786427  0.39485955  0.93808203    -0.14400
C868        C  0.86955610  0.39873846  0.92148365     0.07800
C869        C  0.85678792  0.37014834  0.89374240    -0.14400
C870        C  0.88235968  0.33979573  0.88143559    -0.14400
C871        C  0.92156639  0.33706665  0.89640460     0.07800
C872        C  0.93314754  0.36386380  0.92636742    -0.14400
H873        H  0.91818823  0.41547663  0.96053222     0.11800
H874        H  0.82696619  0.37124544  0.88125684     0.11800
H875        H  0.87132004  0.31866616  0.85981760     0.11800
H876        H  0.96204724  0.36176813  0.94035438     0.11800
C877        C  0.92208321  0.61605722  0.91723217    -0.14400
C878        C  0.88175960  0.62518647  0.92605524     0.07800
C879        C  0.87104893  0.66605198  0.92619629    -0.14400
C880        C  0.89959101  0.69696190  0.91648105    -0.14400
C881        C  0.93953223  0.68786507  0.90622404     0.07800
C882        C  0.95048969  0.64706402  0.90671239    -0.14400
H883        H  0.93119220  0.58492795  0.91678403     0.11800
H884        H  0.84033788  0.67414583  0.93355135     0.11800
H885        H  0.88999323  0.72795382  0.91489328     0.11800
H886        H  0.98030507  0.63893917  0.89641174     0.11800
C887        C  0.91229616  0.60030613  0.09910231    -0.14400
C888        C  0.87575076  0.61308374  0.08344961     0.07800
C889        C  0.86707356  0.65440090  0.08213888    -0.14400
C890        C  0.89417217  0.68258148  0.09700369    -0.14400
C891        C  0.92988990  0.66966560  0.11384985     0.07800
C892        C  0.93912346  0.62859527  0.11478436    -0.14400
H893        H  0.91954989  0.56862182  0.10000538     0.11800
H894        H  0.83935213  0.66489803  0.06930693     0.11800
H895        H  0.88718258  0.71434659  0.09571324     0.11800
H896        H  0.96704632  0.61860189  0.12754162     0.11800
C897        C  0.05429435  0.02800452  0.81914539    -0.14300
C898        C  0.07237130  0.02289999  0.78767730    -0.15900
C899        C  0.09244786  0.04135499  0.19567450    -0.14300
C900        C  0.07958323  0.04526506  0.16171379    -0.15900
C901        C  0.24168018  0.54033008  0.20944463    -0.14400
C902        C  0.23058053  0.50491399  0.18991174     0.07800
C903        C  0.21853880  0.47045049  0.21308659    -0.14400
C904        C  0.21651032  0.47164455  0.25502601    -0.14400
C905        C  0.22626095  0.50761014  0.27477926     0.07800
C906        C  0.23964678  0.54157805  0.25127804    -0.14400
H907        H  0.25182566  0.56728054  0.19242720     0.11800
H908        H  0.21015107  0.44261329  0.19881452     0.11800
H909        H  0.20692179  0.44414343  0.27091548     0.11800
H910        H  0.24780229  0.56954295  0.26545090     0.11800
C911        C  0.32647029  0.54845052  0.41437819    -0.14300
C912        C  0.29261637  0.54403706  0.40165121    -0.15900
C913        C  0.74753423  0.46855863  0.25473136    -0.14400
C914        C  0.74786890  0.50434800  0.27653744     0.07800
C915        C  0.73941207  0.54076109  0.25573494    -0.14400
C916        C  0.73579421  0.54212253  0.21381285    -0.14400
C917        C  0.73908435  0.50680626  0.19178140     0.07800
C918        C  0.74338281  0.46982576  0.21295609    -0.14400
H919        H  0.75059946  0.43933139  0.26942627     0.11800
H920        H  0.73740659  0.56863841  0.27175946     0.11800
H921        H  0.73115371  0.57096158  0.19863303     0.11800
H922        H  0.74460602  0.44175490  0.19716399     0.11800
C923        C  0.69927497  0.52290582  0.41813417    -0.14300
C924        C  0.66840167  0.52868040  0.43701452    -0.15900
C925        C  0.90024599  0.97180291  0.84004333    -0.14300
C926        C  0.88726816  0.97539625  0.80627007    -0.15900
C927        C  0.92821974  0.99019604  0.17829443    -0.14300
C928        C  0.90985465  0.99519866  0.20953136    -0.15900
C929        C  0.22903550  0.54897442  0.74786676    -0.14400
C930        C  0.22995892  0.51293856  0.72643953     0.07800
C931        C  0.24116176  0.47737156  0.74709064    -0.14400
C932        C  0.24681490  0.47681168  0.78863025    -0.14400
C933        C  0.24247575  0.51212437  0.81039833     0.07800
C934        C  0.23506507  0.54849134  0.78932464    -0.14400
H935        H  0.22365265  0.57778315  0.73327010     0.11800
H936        H  0.24391737  0.44946447  0.73122956     0.11800
H937        H  0.25365863  0.44849563  0.80378679     0.11800
H938        H  0.23271318  0.57654880  0.80500812     0.11800
C939        C  0.27866451  0.49111922  0.58615553    -0.14300
C940        C  0.31022008  0.48711621  0.56777808    -0.15900
C941        C  0.74044363  0.47234587  0.75132360    -0.14400
C942        C  0.75184407  0.50642748  0.72710744     0.07800
C943        C  0.75817876  0.54364700  0.74581965    -0.14400
C944        C  0.75671880  0.54570802  0.78770632    -0.14400
C945        C  0.74835826  0.51084138  0.81172467     0.07800
C946        C  0.73919073  0.47436032  0.79308260    -0.14400
H947        H  0.73370939  0.44367254  0.73783959     0.11800
H948        H  0.76399288  0.57151855  0.72882070     0.11800
H949        H  0.76257644  0.57453341  0.80122717     0.11800
H950        H  0.73131801  0.44711623  0.81071510     0.11800
C951        C  0.68451698  0.47514599  0.59987014    -0.14300
C952        C  0.65086771  0.47076477  0.58672734    -0.15900
C953        C  0.95132771  0.26702640  0.25216091    -0.14400
C954        C  0.98647460  0.27392956  0.22813521     0.07800
C955        C  0.02401653  0.27575933  0.24707584    -0.14400
C956        C  0.02593991  0.27329295  0.28898080    -0.14400
C957        C  0.99048913  0.26853495  0.31279599     0.07800
C958        C  0.95320537  0.26498209  0.29391038    -0.14400
H959        H  0.92211244  0.26384439  0.23856826     0.11800
H960        H  0.05218728  0.27824906  0.23006088     0.11800
H961        H  0.05521158  0.27507034  0.30265647     0.11800
H962        H  0.92528028  0.26048988  0.31131454     0.11800
C963        C  0.02412283  0.25177923  0.71511560    -0.14400
C964        C  0.98894988  0.25503815  0.69265556     0.07800
C965        C  0.95217980  0.26142699  0.71316282    -0.14400
C966        C  0.95094256  0.26752540  0.75451420    -0.14400
C967        C  0.98659456  0.26788861  0.77660654     0.07800
C968        C  0.02280743  0.25756803  0.75672470    -0.14400
H969        H  0.05279109  0.24569754  0.70046115     0.11800
H970        H  0.92421022  0.26285884  0.69710141     0.11800
H971        H  0.92176597  0.27191664  0.76857597     0.11800
H972        H  0.05051415  0.25561698  0.77317870     0.11800
C973        C  0.84916326  0.37498398  0.39651182    -0.14400
C974        C  0.87811145  0.38790115  0.42395835     0.07800
C975        C  0.87470154  0.42666743  0.43957551    -0.14400
C976        C  0.84390701  0.45217384  0.42712601    -0.14400
C977        C  0.81652494  0.44009519  0.39774832     0.07800
C978        C  0.81888708  0.40058762  0.38371615    -0.14400
H979        H  0.84990227  0.34495755  0.38458930     0.11800
H980        H  0.89568112  0.43726368  0.46161482     0.11800
H981        H  0.84250925  0.48171440  0.43984461     0.11800
H982        H  0.79750609  0.38935435  0.36238300     0.11800
C983        C  0.85734886  0.37055498  0.62351970    -0.14400
C984        C  0.87875553  0.38019142  0.58729124     0.07800
C985        C  0.86811426  0.41424719  0.56423444    -0.14400
C986        C  0.83680919  0.43836084  0.57719504    -0.14400
C987        C  0.81668391  0.43011210  0.61445208     0.07800
C988        C  0.82684374  0.39543623  0.63714032    -0.14400
H989        H  0.86434780  0.34388247  0.64142638     0.11800
H990        H  0.88331603  0.42167826  0.53559736     0.11800
H991        H  0.82938767  0.46405644  0.55825512     0.11800
H992        H  0.81119223  0.38737666  0.66538600     0.11800
C993        C  0.08521690  0.42992963  0.59065423    -0.14400
C994        C  0.09317870  0.38854380  0.59088076     0.07800
C995        C  0.12923282  0.37497230  0.60772104    -0.14400
C996        C  0.15720579  0.40227169  0.62280695    -0.14400
C997        C  0.14965650  0.44350113  0.62125768     0.07800
C998        C  0.11320334  0.45716420  0.60612995    -0.14400
H999        H  0.05760693  0.44124005  0.57836361     0.11800
H1000       H  0.13649166  0.34329232  0.60828569     0.11800
H1001       H  0.18516018  0.39137222  0.63474488     0.11800
H1002       H  0.10630549  0.48882469  0.60649511     0.11800
C1003       C  0.10475012  0.43833465  0.43821750    -0.14400
C1004       C  0.10819510  0.39690328  0.43065278     0.07800
C1005       C  0.14509060  0.38376646  0.41446246    -0.14400
C1006       C  0.17659672  0.41121331  0.40411708    -0.14400
C1007       C  0.17221678  0.45286306  0.40890070     0.07800
C1008       C  0.13647209  0.46603594  0.42743179    -0.14400
H1009       H  0.07721891  0.44949340  0.45153227     0.11800
H1010       H  0.14964158  0.35211037  0.40916175     0.11800
H1011       H  0.20378858  0.40007562  0.39002368     0.11800
H1012       H  0.13211254  0.49789011  0.43148625     0.11800
C1013       C  0.09965001  0.05605685  0.61991356    -0.14400
C1014       C  0.10814950  0.06742211  0.65920917     0.07800
C1015       C  0.10331271  0.10727834  0.67033290    -0.14400
C1016       C  0.08888308  0.13550351  0.64276129    -0.14400
C1017       C  0.07886322  0.12415719  0.60363584     0.07800
C1018       C  0.08463033  0.08421681  0.59229347    -0.14400
H1019       H  0.10461629  0.02552268  0.61066705     0.11800
H1020       H  0.11009122  0.11633098  0.70057069     0.11800
H1021       H  0.08448931  0.16599755  0.65253754     0.11800
H1022       H  0.07754158  0.07483959  0.56225516     0.11800
C1023       C  0.91307397  0.12836436  0.65863201    -0.14400
C1024       C  0.91935515  0.11679682  0.61847703     0.07800
C1025       C  0.91544972  0.07563132  0.60994503    -0.14400
C1026       C  0.90335532  0.04713502  0.64039095    -0.14400
C1027       C  0.89624034  0.05892624  0.68026442     0.07800
C1028       C  0.90167766  0.09979060  0.68907311    -0.14400
H1029       H  0.91641762  0.15973323  0.66649095     0.11800
H1030       H  0.91992314  0.06573381  0.57939623     0.11800
H1031       H  0.89679920  0.01646003  0.63207223     0.11800
H1032       H  0.89503734  0.10989253  0.71920760     0.11800
C1033       C  0.88203920  0.13943826  0.36402300    -0.14400
C1034       C  0.91412708  0.12839958  0.38851817     0.07800
C1035       C  0.93419343  0.09263260  0.38031982    -0.14400
C1036       C  0.92126511  0.06770453  0.34948672    -0.14400
C1037       C  0.88741226  0.07746217  0.32651384     0.07800
C1038       C  0.86908079  0.11459231  0.33343492    -0.14400
H1039       H  0.86660105  0.16739724  0.36859327     0.11800
H1040       H  0.96010670  0.08403947  0.39752640     0.11800
H1041       H  0.93748438  0.04038401  0.34477028     0.11800
H1042       H  0.84436742  0.12479044  0.31549725     0.11800
C1043       C  0.05992193  0.13517833  0.34976368    -0.14400
C1044       C  0.07440307  0.13394110  0.38917773     0.07800
C1045       C  0.10422858  0.10674221  0.39956767    -0.14400
C1046       C  0.11996087  0.08142057  0.37057172    -0.14400
C1047       C  0.10538461  0.08237726  0.33110360     0.07800
C1048       C  0.07493877  0.10909405  0.32099038    -0.14400
H1049       H  0.03675237  0.15610982  0.34144516     0.11800
H1050       H  0.11565936  0.10553025  0.42985767     0.11800
H1051       H  0.14312211  0.06059291  0.37911196     0.11800
H1052       H  0.06336184  0.11023185  0.29076191     0.11800
C1053       C  0.95705264  0.76124241  0.28639627    -0.14400
C1054       C  0.99188266  0.75638397  0.30907330     0.07800
C1055       C  0.02839228  0.74835899  0.28895718    -0.14400
C1056       C  0.02982481  0.74328457  0.24746789    -0.14400
C1057       C  0.99457391  0.74555715  0.22481469     0.07800
C1058       C  0.95852677  0.75633993  0.24468158    -0.14400
H1059       H  0.92857647  0.76833077  0.30089201     0.11800
H1060       H  0.05601372  0.74525139  0.30536441     0.11800
H1061       H  0.05894006  0.73787863  0.23382502     0.11800
H1062       H  0.93111626  0.75975286  0.22798806     0.11800
C1063       C  0.02182200  0.75794821  0.70718955    -0.14400
C1064       C  0.98546008  0.74843065  0.68837437     0.07800
C1065       C  0.95070536  0.73980714  0.71236194    -0.14400
C1066       C  0.95279200  0.73857158  0.75435767    -0.14400
C1067       C  0.98990692  0.74559155  0.77327702     0.07800
C1068       C  0.02390214  0.75680048  0.74899460    -0.14400
H1069       H  0.04898878  0.76600142  0.68962903     0.11800
H1070       H  0.92198559  0.73348335  0.69872866     0.11800
H1071       H  0.92501480  0.73226178  0.77118449     0.11800
H1072       H  0.05257030  0.76366245  0.76251293     0.11800
C1073       C  0.08757241  0.59655138  0.39860332    -0.14400
C1074       C  0.09978461  0.63461498  0.41183564     0.07800
C1075       C  0.14115421  0.64523349  0.41175314    -0.14400
C1076       C  0.16990228  0.61793409  0.39910638    -0.14400
C1077       C  0.15754402  0.58013374  0.38563469     0.07800
C1078       C  0.11629413  0.56976583  0.38483945    -0.14400
H1079       H  0.05587976  0.58777622  0.39852061     0.11800
H1080       H  0.15126216  0.67428418  0.42238410     0.11800
H1081       H  0.20167005  0.62639565  0.39940066     0.11800
H1082       H  0.10642329  0.54080080  0.37384258     0.11800
C1083       C  0.10482819  0.58621502  0.55860296    -0.14400
C1084       C  0.09922102  0.62416631  0.57549858     0.07800
C1085       C  0.12636695  0.63705386  0.60457438    -0.14400
C1086       C  0.15702467  0.61233409  0.61773164    -0.14400
C1087       C  0.16123836  0.57325890  0.60310084     0.07800
C1088       C  0.13570693  0.56118604  0.57202539    -0.14400
H1089       H  0.08549969  0.57591302  0.53497974     0.11800
H1090       H  0.12403871  0.66654445  0.61746624     0.11800
H1091       H  0.17715682  0.62407560  0.63991630     0.11800
H1092       H  0.13853255  0.53205399  0.55868372     0.11800
C1093       C  0.88198310  0.57349997  0.57490178    -0.14400
C1094       C  0.87409915  0.61494852  0.57223819     0.07800
C1095       C  0.83432270  0.62723797  0.57970240    -0.14400
C1096       C  0.80351814  0.59913321  0.59060594    -0.14400
C1097       C  0.81151222  0.55794251  0.59473462     0.07800
C1098       C  0.85117423  0.54541815  0.58700395    -0.14400
H1099       H  0.91226905  0.56304894  0.56951864     0.11800
H1100       H  0.82692478  0.65885047  0.57739796     0.11800
H1101       H  0.77367940  0.60980611  0.59790087     0.11800
H1102       H  0.85917821  0.51455474  0.59312433     0.11800
C1103       C  0.89311140  0.58488181  0.40953594    -0.14400
C1104       C  0.88437644  0.62597053  0.41127491     0.07800
C1105       C  0.84629959  0.63911322  0.39920425    -0.14400
C1106       C  0.81747564  0.61165242  0.38598313    -0.14400
C1107       C  0.82632925  0.57077852  0.38459438     0.07800
C1108       C  0.86434249  0.55754782  0.39573563    -0.14400
H1109       H  0.92214392  0.57397433  0.41853000     0.11800
H1110       H  0.83836300  0.67053571  0.40077492     0.11800
H1111       H  0.78822620  0.62217031  0.37713716     0.11800
H1112       H  0.87205874  0.52626912  0.39297178     0.11800
C1113       C  0.07341510  0.88669505  0.34572410    -0.14400
C1114       C  0.06021750  0.89965765  0.38379218     0.07800
C1115       C  0.05662293  0.94154074  0.38888331    -0.14400
C1116       C  0.06886992  0.96950678  0.35766221    -0.14400
C1117       C  0.08449681  0.95610228  0.32065958     0.07800
C1118       C  0.08541779  0.91440943  0.31482047    -0.14400
H1119       H  0.07536737  0.85483198  0.33988094     0.11800
H1120       H  0.04577010  0.95270991  0.41738945     0.11800
H1121       H  0.06841707  0.00149205  0.36331889     0.11800
H1122       H  0.09752433  0.90321046  0.28679286     0.11800
C1123       C  0.88509207  0.87684888  0.35937241    -0.14400
C1124       C  0.90281870  0.88984619  0.39507107     0.07800
C1125       C  0.90742797  0.93139281  0.40124333    -0.14400
C1126       C  0.89462424  0.95929994  0.37227282    -0.14400
C1127       C  0.87750911  0.94605742  0.33671724     0.07800
C1128       C  0.87242795  0.90476982  0.33054418    -0.14400
H1129       H  0.88149829  0.84506193  0.35327683     0.11800
H1130       H  0.92093353  0.94232261  0.42833202     0.11800
H1131       H  0.89715568  0.99110672  0.37812364     0.11800
H1132       H  0.85889327  0.89421609  0.30328471     0.11800
C1133       C  0.86848770  0.86929852  0.63519516    -0.14400
C1134       C  0.90439111  0.87863318  0.61322984     0.07800
C1135       C  0.92779340  0.91259735  0.62336222    -0.14400
C1136       C  0.91476249  0.93760603  0.65392553    -0.14400
C1137       C  0.87748735  0.92983250  0.67408740     0.07800
C1138       C  0.85506174  0.89473717  0.66515503    -0.14400
H1139       H  0.85044978  0.84266089  0.62876735     0.11800
H1140       H  0.95640145  0.91961714  0.60790108     0.11800
H1141       H  0.93331798  0.96374076  0.66057718     0.11800
H1142       H  0.82686388  0.88704817  0.68106653     0.11800
C1143       C  0.05320198  0.92464540  0.61390765    -0.14400
C1144       C  0.06529583  0.88431974  0.61382809     0.07800
C1145       C  0.08868654  0.87006029  0.64590591    -0.14400
C1146       C  0.10162883  0.89599734  0.67572755    -0.14400
C1147       C  0.09141136  0.93690623  0.67452143     0.07800
C1148       C  0.06573940  0.95044943  0.64409872    -0.14400
H1149       H  0.03421118  0.93643116  0.59048944     0.11800
H1150       H  0.09752979  0.83884826  0.64782173     0.11800
H1151       H  0.12029676  0.88411733  0.69937124     0.11800
H1152       H  0.05639516  0.98141389  0.64252644     0.11800
C1153       C  0.23962239  0.76039935  0.53639011    -0.14400
C1154       C  0.26285668  0.77193557  0.50166097     0.07800
C1155       C  0.24282862  0.77854959  0.46517337    -0.14400
C1156       C  0.20080336  0.77634763  0.46420038    -0.14400
C1157       C  0.17774924  0.76713145  0.49946996     0.07800
C1158       C  0.19765020  0.75836350  0.53543911    -0.14400
H1159       H  0.25408551  0.75388235  0.56467900     0.11800
H1160       H  0.25887501  0.78522943  0.43702071     0.11800
H1161       H  0.18639223  0.78224339  0.43577541     0.11800
H1162       H  0.18084555  0.75008546  0.56301464     0.11800
C1163       C  0.39037679  0.70496667  0.53411920    -0.14300
C1164       C  0.40345881  0.67132607  0.53908674    -0.15900
C1165       C  0.20307209  0.25706409  0.53164659    -0.14400
C1166       C  0.18056549  0.25418000  0.49660425     0.07800
C1167       C  0.20082418  0.24792883  0.45968567    -0.14400
C1168       C  0.24241112  0.24288571  0.45806186    -0.14400
C1169       C  0.26486386  0.24368361  0.49346206     0.07800
C1170       C  0.24477322  0.25251469  0.52993920    -0.14400
H1171       H  0.18849375  0.26256286  0.56046445     0.11800
H1172       H  0.18450093  0.24635668  0.43190028     0.11800
H1173       H  0.25639417  0.23880619  0.42881925     0.11800
H1174       H  0.26133546  0.25474097  0.55752547     0.11800
C1175       C  0.40361132  0.29886046  0.51321272    -0.14300
C1176       C  0.42163351  0.33040911  0.51858122    -0.15900
C1177       C  0.73885494  0.26015930  0.96593574    -0.14400
C1178       C  0.72710537  0.23656449  0.00035600     0.07800
C1179       C  0.71879398  0.25628810  0.03663180    -0.14400
C1180       C  0.71992390  0.29832322  0.03760584    -0.14400
C1181       C  0.72973735  0.32161597  0.00260191     0.07800
C1182       C  0.73989232  0.30208255  0.96691658    -0.14400
H1183       H  0.74635728  0.24598239  0.93782632     0.11800
H1184       H  0.71146063  0.24014912  0.06461819     0.11800
H1185       H  0.71277971  0.31255216  0.06576377     0.11800
H1186       H  0.74861589  0.31915011  0.93957067     0.11800
C1187       C  0.79585171  0.10975188  0.96758218    -0.14300
C1188       C  0.82951284  0.09648566  0.96335929    -0.15900
C1189       C  0.23867675  0.29539808  0.96781581    -0.14400
C1190       C  0.24095566  0.31694201  0.00345441     0.07800
C1191       C  0.24639942  0.29576769  0.04013048    -0.14400
C1192       C  0.25204010  0.25430669  0.04090308    -0.14400
C1193       C  0.25278674  0.23302338  0.00487837     0.07800
C1194       C  0.24384474  0.25378909  0.96867064    -0.14400
H1195       H  0.23354532  0.31070651  0.93916611     0.11800
H1196       H  0.24720186  0.31131583  0.06833844     0.11800
H1197       H  0.25562848  0.23947643  0.06994293     0.11800
H1198       H  0.24238036  0.23797419  0.94064706     0.11800
C1199       C  0.20353176  0.09239658  0.98466470    -0.14300
C1200       C  0.17201698  0.07417480  0.97968278    -0.15900
C1201       C  0.73211128  0.75665687  0.47052361    -0.14400
C1202       C  0.71331765  0.76860649  0.50673002     0.07800
C1203       C  0.73732941  0.77336186  0.54065508    -0.14400
C1204       C  0.77893872  0.76964549  0.53763176    -0.14400
C1205       C  0.79792510  0.76031026  0.50091573     0.07800
C1206       C  0.77404409  0.75317511  0.46741809    -0.14400
H1207       H  0.71438034  0.75168820  0.44407552     0.11800
H1208       H  0.72481032  0.78011338  0.56986148     0.11800
H1209       H  0.79632970  0.77471268  0.56427709     0.11800
H1210       H  0.78770716  0.74513474  0.43887489     0.11800
C1211       C  0.55170841  0.68938388  0.48614373    -0.14300
C1212       C  0.57087329  0.72030592  0.49083093    -0.15900
C1213       C  0.74178259  0.76575861  0.02875799    -0.14400
C1214       C  0.72874576  0.78509172  0.99313085     0.07800
C1215       C  0.72270183  0.76161245  0.95908234    -0.14400
C1216       C  0.72761280  0.72007251  0.96121307    -0.14400
C1217       C  0.73898214  0.70072829  0.99721345     0.07800
C1218       C  0.74649908  0.72399825  0.03093263    -0.14400
H1219       H  0.74721823  0.78301034  0.05537196     0.11800
H1220       H  0.71403443  0.77442051  0.93049790     0.11800
H1221       H  0.72172839  0.70299271  0.93458496     0.11800
H1222       H  0.75574883  0.70996469  0.05900217     0.11800
C1223       C  0.81247538  0.94437045  0.01774507    -0.14300
C1224       C  0.78124917  0.92542237  0.01339218    -0.15900
C1225       C  0.26041541  0.76105842  0.96603023    -0.14400
C1226       C  0.25623061  0.78057582  0.00307087     0.07800
C1227       C  0.24749416  0.75693346  0.03819725    -0.14400
C1228       C  0.24581847  0.71505405  0.03695890    -0.14400
C1229       C  0.25229991  0.69572676  0.00036009     0.07800
C1230       C  0.25888094  0.71912377  0.96482937    -0.14400
H1231       H  0.26433031  0.77731028  0.93753736     0.11800
H1232       H  0.24272286  0.77100613  0.06690490     0.11800
H1233       H  0.23954707  0.69788657  0.06481953     0.11800
H1234       H  0.26284267  0.70509020  0.93599423     0.11800
C1235       C  0.18721069  0.90715339  0.03380906    -0.14300
C1236       C  0.15332892  0.92001930  0.03678774    -0.15900
C1237       C  0.28073987  0.97212530  0.26897975    -0.14400
C1238       C  0.30395743  0.00738069  0.25991451     0.07800
C1239       C  0.28433034  0.04368216  0.25195753    -0.14400
C1240       C  0.24246649  0.04492228  0.25416145    -0.14400
C1241       C  0.21902474  0.01019597  0.26524729     0.07800
C1242       C  0.23873017  0.97343265  0.27156384    -0.14400
H1243       H  0.29500611  0.94350694  0.27442231     0.11800
H1244       H  0.30126188  0.07129963  0.24401284     0.11800
H1245       H  0.22823897  0.07343517  0.24797342     0.11800
H1246       H  0.22240348  0.94535290  0.27807193     0.11800
C1247       C  0.70648549  0.04672233  0.24496193    -0.14400
C1248       C  0.68401874  0.01012497  0.24715989     0.07800
C1249       C  0.70459834  0.97375068  0.25053383    -0.14400
C1250       C  0.74629338  0.97410139  0.25479538    -0.14400
C1251       C  0.76827973  0.01081889  0.25740954     0.07800
C1252       C  0.74821355  0.04704826  0.24972262    -0.14400
H1253       H  0.69175401  0.07525448  0.24060678     0.11800
H1254       H  0.68844417  0.94491249  0.25092252     0.11800
H1255       H  0.76106109  0.94544045  0.25746259     0.11800
H1256       H  0.76444047  0.07580350  0.24810394     0.11800
C1257       C  0.41496690  0.85197061  0.37870374    -0.14400
C1258       C  0.41894112  0.89243248  0.39024824     0.07800
C1259       C  0.41275974  0.90099213  0.43111793    -0.14400
C1260       C  0.40046223  0.87017748  0.45918754    -0.14400
C1261       C  0.39549227  0.82996395  0.44732986     0.07800
C1262       C  0.40334154  0.82118869  0.40686648    -0.14400
H1263       H  0.42036038  0.84412692  0.34761126     0.11800
H1264       H  0.41562048  0.93174406  0.44100124     0.11800
H1265       H  0.39231858  0.87831197  0.48953988     0.11800
H1266       H  0.39868618  0.79071467  0.39670198     0.11800
C1267       C  0.56794814  0.86566855  0.44371284    -0.14400
C1268       C  0.60533602  0.84720611  0.43843456     0.07800
C1269       C  0.62926067  0.85806608  0.40381127    -0.14400
C1270       C  0.61677042  0.88753621  0.37632445    -0.14400
C1271       C  0.58027122  0.90691935  0.38298285     0.07800
C1272       C  0.55597872  0.89569814  0.41678725    -0.14400
H1273       H  0.54738359  0.85743197  0.46841718     0.11800
H1274       H  0.65729797  0.84345226  0.39714527     0.11800
H1275       H  0.63540046  0.89486525  0.34965928     0.11800
H1276       H  0.52679875  0.90900948  0.42157902     0.11800
C1277       C  0.37886672  0.18226778  0.38943359    -0.14400
C1278       C  0.38743234  0.18019967  0.43061690     0.07800
C1279       C  0.40918301  0.14731968  0.44542217    -0.14400
C1280       C  0.42167906  0.11693731  0.41987237    -0.14400
C1281       C  0.41232520  0.11858385  0.37882881     0.07800
C1282       C  0.39099242  0.15187573  0.36392833    -0.14400
H1283       H  0.36207684  0.20714798  0.37705365     0.11800
H1284       H  0.41505575  0.14393464  0.47699108     0.11800
H1285       H  0.43837157  0.09205230  0.43236587     0.11800
H1286       H  0.38369525  0.15470248  0.33236556     0.11800
C1287       C  0.52930593  0.22120448  0.22671951    -0.14400
C1288       C  0.49523686  0.19793760  0.23970742     0.07800
C1289       C  0.46021019  0.21763593  0.25195756    -0.14400
C1290       C  0.45895595  0.25962525  0.25031416    -0.14400
C1291       C  0.49254451  0.28327389  0.23624144     0.07800
C1292       C  0.52806917  0.26334030  0.22498522    -0.14400
H1293       H  0.55683017  0.20684263  0.21734057     0.11800
H1294       H  0.43358486  0.20060825  0.26284184     0.11800
H1295       H  0.43128536  0.27383217  0.25952079     0.11800
H1296       H  0.55515600  0.27936014  0.21448418     0.11800
C1297       C  0.45244901  0.75668062  0.23490181    -0.14400
C1298       C  0.48758822  0.73396787  0.23804316     0.07800
C1299       C  0.52317099  0.75353630  0.25054837    -0.14400
C1300       C  0.52445561  0.79511836  0.25628510    -0.14400
C1301       C  0.48989970  0.81790603  0.25037678     0.07800
C1302       C  0.45370164  0.79803468  0.24077903    -0.14400
H1303       H  0.42356475  0.74328244  0.22816452     0.11800
H1304       H  0.55042727  0.73672184  0.25461737     0.11800
H1305       H  0.55262354  0.80946560  0.26460205     0.11800
H1306       H  0.42625852  0.81457101  0.23682168     0.11800
C1307       C  0.60109554  0.08795605  0.07122920    -0.14400
C1308       C  0.61023847  0.08150382  0.11188050     0.07800
C1309       C  0.65084273  0.08488093  0.12322282    -0.14400
C1310       C  0.68138717  0.09565417  0.09465258    -0.14400
C1311       C  0.67203325  0.10338832  0.05420001     0.07800
C1312       C  0.63155574  0.09966753  0.04291260    -0.14400
H1313       H  0.57013000  0.08590857  0.06172808     0.11800
H1314       H  0.65895342  0.07957736  0.15432940     0.11800
H1315       H  0.71207189  0.09994381  0.10445962     0.11800
H1316       H  0.62291108  0.10873081  0.01291007     0.11800
C1317       C  0.60088101  0.94157106  0.07982746    -0.14400
C1318       C  0.59322209  0.92015691  0.11648035     0.07800
C1319       C  0.61449366  0.88504122  0.12500829    -0.14400
C1320       C  0.64310906  0.87163605  0.09736111    -0.14400
C1321       C  0.65122823  0.89329328  0.06078710     0.07800
C1322       C  0.62988917  0.92851933  0.05246292    -0.14400
H1323       H  0.58547175  0.96927029  0.07289260     0.11800
H1324       H  0.60943685  0.86828773  0.15331868     0.11800
H1325       H  0.65954462  0.84486901  0.10524224     0.11800
H1326       H  0.63518741  0.94610360  0.02477598     0.11800
C1327       C  0.31296791  0.90460268  0.11068636    -0.14400
C1328       C  0.32391645  0.89626324  0.07090297     0.07800
C1329       C  0.36446245  0.90102110  0.05795139    -0.14400
C1330       C  0.39367679  0.91486520  0.08435342    -0.14400
C1331       C  0.38290718  0.92266608  0.12453365     0.07800
C1332       C  0.34223843  0.91743450  0.13737120    -0.14400
H1333       H  0.28189521  0.90053129  0.12123721     0.11800
H1334       H  0.37354077  0.89359833  0.02754712     0.11800
H1335       H  0.42470546  0.91875875  0.07363370     0.11800
H1336       H  0.33292078  0.92388516  0.16798104     0.11800
C1337       C  0.38128851  0.07214244  0.07895460    -0.14400
C1338       C  0.38349339  0.08647424  0.11832217     0.07800
C1339       C  0.35338401  0.11223681  0.13202105    -0.14400
C1340       C  0.32273346  0.12440417  0.10684455    -0.14400
C1341       C  0.32138020  0.11170180  0.06690717     0.07800
C1342       C  0.35037709  0.08443619  0.05360233    -0.14400
H1343       H  0.40326966  0.05131671  0.06779043     0.11800
H1344       H  0.35329015  0.12313471  0.16245076     0.11800
H1345       H  0.30026649  0.14431032  0.11870088     0.11800
H1346       H  0.35001915  0.07335272  0.02333311     0.11800
C1347       C  0.73663782  0.23456002  0.53728145    -0.14400
C1348       C  0.71662071  0.24416647  0.50138464     0.07800
C1349       C  0.73975047  0.25861731  0.46760342    -0.14400
C1350       C  0.78160751  0.26143315  0.46887106    -0.14400
C1351       C  0.80149498  0.25014973  0.50415322     0.07800
C1352       C  0.77860632  0.23749905  0.53855191    -0.14400
H1353       H  0.72072052  0.22483207  0.56470876     0.11800
H1354       H  0.72527210  0.26709838  0.43980580     0.11800
H1355       H  0.79837240  0.27217924  0.44203027     0.11800
H1356       H  0.79314439  0.22916778  0.56634270     0.11800
C1357       C  0.56514088  0.16199873  0.43210051    -0.14400
C1358       C  0.60301214  0.18141446  0.42526958     0.07800
C1359       C  0.62649277  0.17108650  0.39134336    -0.14400
C1360       C  0.61345425  0.14067109  0.36622375    -0.14400
C1361       C  0.57669509  0.11982022  0.37447345     0.07800
C1362       C  0.55230762  0.13122597  0.40719989    -0.14400
H1363       H  0.54587976  0.16933989  0.45746559     0.11800
H1364       H  0.65515947  0.18631724  0.38418864     0.11800
H1365       H  0.63228933  0.13323452  0.34048688     0.11800
H1366       H  0.52305486  0.11665660  0.41326916     0.11800
C1367       C  0.57790780  0.34779149  0.46557487    -0.14300
C1368       C  0.59057011  0.31389675  0.47006448    -0.15900
C1369       C  0.27893874  0.96936162  0.74388073    -0.14400
C1370       C  0.29821005  0.00610087  0.75300030     0.07800
C1371       C  0.27448983  0.03997295  0.75907448    -0.14400
C1372       C  0.23272200  0.03748585  0.75371464    -0.14400
C1373       C  0.21385147  0.00140114  0.74132831     0.07800
C1374       C  0.23748252  0.96696588  0.73821539    -0.14400
H1375       H  0.29610510  0.94237726  0.73972447     0.11800
H1376       H  0.28825148  0.06851851  0.76707344     0.11800
H1377       H  0.21523654  0.06431790  0.75759642     0.11800
H1378       H  0.22481727  0.93793445  0.73093884     0.11800
C1379       C  0.70148147  0.04479982  0.73260124    -0.14400
C1380       C  0.67785781  0.00970300  0.74081685     0.07800
C1381       C  0.69682889  0.97274528  0.74715270    -0.14400
C1382       C  0.73853223  0.97078377  0.74441577    -0.14400
C1383       C  0.76236685  0.00546775  0.73440523     0.07800
C1384       C  0.74334019  0.04279462  0.72958263    -0.14400
H1385       H  0.68767889  0.07384195  0.72840616     0.11800
H1386       H  0.67953085  0.94516901  0.75432389     0.11800
H1387       H  0.75229797  0.94186391  0.74966395     0.11800
H1388       H  0.76013762  0.07082410  0.72431254     0.11800
C1389       C  0.36580255  0.12448051  0.62106673    -0.14400
C1390       C  0.40458041  0.10961823  0.61588887     0.07800
C1391       C  0.42955278  0.12461869  0.58399030    -0.14400
C1392       C  0.41595889  0.15442339  0.55759397    -0.14400
C1393       C  0.37636546  0.16855593  0.56137542     0.07800
C1394       C  0.35175061  0.15350462  0.59407661    -0.14400
H1395       H  0.34653412  0.11394625  0.64631102     0.11800
H1396       H  0.46027306  0.11457855  0.58054418     0.11800
H1397       H  0.43711024  0.16602568  0.53467846     0.11800
H1398       H  0.32187081  0.16449575  0.59987799     0.11800
C1399       C  0.56547946  0.11618697  0.56954906    -0.14400
C1400       C  0.56023755  0.12477024  0.61054037     0.07800
C1401       C  0.56440697  0.16516508  0.62208380    -0.14400
C1402       C  0.57554395  0.19588890  0.59378734    -0.14400
C1403       C  0.58267491  0.18710426  0.55321810     0.07800
C1404       C  0.57717477  0.14699338  0.54127998    -0.14400
H1405       H  0.56236992  0.08544247  0.55969004     0.11800
H1406       H  0.55970828  0.17299322  0.65327978     0.11800
H1407       H  0.58069887  0.22629161  0.60394960     0.11800
H1408       H  0.58461132  0.13893391  0.51071854     0.11800
C1409       C  0.59899510  0.83210598  0.61216448    -0.14400
C1410       C  0.59406284  0.83748163  0.57050955     0.07800
C1411       C  0.57660735  0.87296489  0.55589670    -0.14400
C1412       C  0.56372698  0.90232607  0.58225990    -0.14400
C1413       C  0.56869246  0.89710570  0.62393786     0.07800
C1414       C  0.58642259  0.86154146  0.63862251    -0.14400
H1415       H  0.61298322  0.80527447  0.62416970     0.11800
H1416       H  0.57457703  0.87903939  0.52402340     0.11800
H1417       H  0.55040905  0.92935357  0.56989749     0.11800
H1418       H  0.59044826  0.85624871  0.67062050     0.11800
C1419       C  0.36862169  0.87807364  0.63446675    -0.14400
C1420       C  0.40560100  0.89838837  0.62594235     0.07800
C1421       C  0.42873608  0.88783972  0.59199313    -0.14400
C1422       C  0.41491157  0.85769280  0.56684863    -0.14400
C1423       C  0.37716261  0.83825455  0.57450579     0.07800
C1424       C  0.35448811  0.84845550  0.60898387    -0.14400
H1425       H  0.35052551  0.88520954  0.66081436     0.11800
H1426       H  0.45790675  0.90235833  0.58531552     0.11800
H1427       H  0.43348106  0.85055773  0.54090872     0.11800
H1428       H  0.32581710  0.83341630  0.61655020     0.11800
C1429       C  0.53060353  0.22000661  0.75784170    -0.14400
C1430       C  0.49378264  0.20009665  0.75014249     0.07800
C1431       C  0.45906812  0.22300627  0.74598306    -0.14400
C1432       C  0.46081771  0.26460672  0.75163308    -0.14400
C1433       C  0.49697597  0.28406992  0.76274574     0.07800
C1434       C  0.53224114  0.26140453  0.76395990    -0.14400
H1435       H  0.55822969  0.20346212  0.76022318     0.11800
H1436       H  0.43042573  0.20874541  0.73906641     0.11800
H1437       H  0.43345478  0.28148193  0.74870520     0.11800
H1438       H  0.56136086  0.27508145  0.76950224     0.11800
C1439       C  0.52327849  0.75942211  0.75354216    -0.14400
C1440       C  0.48854008  0.73611945  0.76477251     0.07800
C1441       C  0.45222139  0.75593076  0.77262142    -0.14400
C1442       C  0.45145778  0.79795880  0.77141856    -0.14400
C1443       C  0.48680400  0.82090324  0.76220834     0.07800
C1444       C  0.52260128  0.80123980  0.75278140    -0.14400
H1445       H  0.55144411  0.74506124  0.74635705     0.11800
H1446       H  0.42418980  0.73974488  0.77959323     0.11800
H1447       H  0.42324106  0.81244522  0.77803369     0.11800
H1448       H  0.55018899  0.81810019  0.74462764     0.11800
C1449       C  0.37048661  0.11841380  0.94896243    -0.14400
C1450       C  0.33117547  0.12650930  0.93729294     0.07800
C1451       C  0.31970773  0.12101874  0.89767916    -0.14400
C1452       C  0.34716765  0.10617715  0.86992243    -0.14400
C1453       C  0.38636873  0.09660882  0.88166045     0.07800
C1454       C  0.39795152  0.10301339  0.92134117    -0.14400
H1455       H  0.37983658  0.12399761  0.97933323     0.11800
H1456       H  0.28938166  0.12759928  0.88851121     0.11800
H1457       H  0.33734441  0.10122280  0.83954289     0.11800
H1458       H  0.42809340  0.09625397  0.93088683     0.11800
C1459       C  0.30518234  0.90477924  0.90265178    -0.14400
C1460       C  0.30689528  0.91391270  0.94365661     0.07800
C1461       C  0.33954331  0.93784086  0.95631958    -0.14400
C1462       C  0.37147282  0.94928485  0.92920541    -0.14400
C1463       C  0.37113573  0.93721266  0.88885468     0.07800
C1464       C  0.33690818  0.91575339  0.87585137    -0.14400
H1465       H  0.28011291  0.88698301  0.89171023     0.11800
H1466       H  0.34147794  0.94591289  0.98753979     0.11800
H1467       H  0.39667947  0.96692120  0.94001264     0.11800
H1468       H  0.33463398  0.90682212  0.84485866     0.11800
C1469       C  0.59213344  0.92221405  0.92115419    -0.14400
C1470       C  0.60171923  0.93248015  0.88072083     0.07800
C1471       C  0.64204365  0.92987394  0.86663176    -0.14400
C1472       C  0.67215598  0.91728948  0.89254036    -0.14400
C1473       C  0.66246594  0.90709015  0.93291929     0.07800
C1474       C  0.62220128  0.90898648  0.94684092    -0.14400
H1475       H  0.56128749  0.92330437  0.93253059     0.11800
H1476       H  0.65034909  0.93782666  0.83554349     0.11800
H1477       H  0.70284295  0.91494743  0.88100026     0.11800
H1478       H  0.61368275  0.89875558  0.97717489     0.11800
C1479       C  0.62362685  0.13080940  0.86525790    -0.14400
C1480       C  0.60062921  0.09557471  0.87539917     0.07800
C1481       C  0.60913565  0.07363217  0.91093154    -0.14400
C1482       C  0.63993689  0.08662667  0.93581186    -0.14400
C1483       C  0.66167144  0.12284592  0.92675195     0.07800
C1484       C  0.65352157  0.14452192  0.89086691    -0.14400
H1485       H  0.61834692  0.14789544  0.83762228     0.11800
H1486       H  0.59273332  0.04571413  0.91893147     0.11800
H1487       H  0.64602136  0.06858405  0.96255792     0.11800
H1488       H  0.67041763  0.17202428  0.88244432     0.11800
loop_ 
_geom_bond_atom_site_label_1 
_geom_bond_atom_site_label_2 
_geom_bond_distance 
_geom_bond_site_symmetry_2 
_ccdc_geom_bond_type 
O1           C12   1.294       .  A
O1          Eu37   2.467       .  S
O2           C13   1.293       .  A
O2          Eu36   2.469       .  S
O3           C14   1.290       .  A
O3           Eu9   2.446       .  S
O4           C15   1.287       .  A
O4           Eu9   2.430       .  S
O5           C15   1.293       .  A
O5          Eu39   2.467       .  S
O6           C14   1.286   1_565  A
O6          Eu38   2.420       .  S
O7           C13   1.293       .  A
O7           Eu9   2.463       .  S
O8           C12   1.291       .  A
O8           Eu9   2.451       .  S
Eu9          O19   2.363       .  S
Eu9          O11   2.334       .  S
Eu9          O10   2.326       .  S
Eu9          O17   2.362       .  S
O10         Eu39   2.330       .  S
O10         Eu36   2.340       .  S
O11         Eu37   2.336       .  S
O11         Eu38   2.322   1_545  S
C12        C1480   1.479       .  S
C13        C1400   1.487       .  S
C14        C1380   1.468       .  S
C15        C1430   1.478       .  S
H16          O17   0.971       .  S
O17         Eu38   2.364   1_545  S
O17         Eu36   2.350       .  S
H18          O19   0.965       .  S
O19         Eu37   2.368       .  S
O19         Eu39   2.367       .  S
O20          C43   1.290       .  A
O20         Eu36   2.446   1_565  S
O21          C44   1.296       .  A
O21         Eu37   2.488   1_565  S
O22          C45   1.287       .  A
O22         Eu38   2.429       .  S
O23          C46   1.287       .  A
O23         Eu39   2.433       .  S
O24          C47   1.285       .  A
O24         Eu39   2.419       .  S
O25          C48   1.285       .  A
O25         Eu38   2.422       .  S
O26          C49   1.288       .  A
O26         Eu40   2.438       .  S
O27          C50   1.289   1_565  A
O27         Eu40   2.439       .  S
O28          C49   1.287       .  A
O28         Eu38   2.425       .  S
O29          C50   1.293       .  A
O29         Eu39   2.471       .  S
O30          C45   1.294       .  A
O30         Eu36   2.471   1_565  S
O31          C48   1.297       .  A
O31         Eu37   2.490   1_565  S
O32          C47   1.291       .  A
O32         Eu37   2.451       .  S
O33          C46   1.289       .  A
O33         Eu36   2.440       .  S
O34          C43   1.292       .  A
O34         Eu40   2.457       .  S
O35          C44   1.290       .  A
O35         Eu40   2.443       .  S
Eu36         O54   2.366       .  S
Eu36         O42   2.333   1_545  S
Eu37         O41   2.342       .  S
Eu37         O52   2.355   1_545  S
Eu38         O52   2.362       .  S
Eu38         O42   2.320       .  S
Eu39         O41   2.327       .  S
Eu39         O54   2.361       .  S
Eu40         O41   2.322   1_565  S
Eu40         O52   2.367       .  S
Eu40         O54   2.357   1_565  S
Eu40         O42   2.327       .  S
C43        C1420   1.474       .  S
C44        C1463   1.493       .  S
C45        C1413   1.481       .  S
C46        C1390   1.458       .  S
C47        C1453   1.464       .  S
C48        C1470   1.478       .  S
C49        C1443   1.466       .  S
C50        C1370   1.483       .  S
H51          O52   0.969       .  S
H53          O54   0.967       .  S
C55          C56   1.536       .  S
C55          C61   1.525       .  S
C55          C59   1.536       .  S
C55        C1348   1.518       .  S
C56          H63   1.082       .  S
C56          C57   1.362       .  D
C57          C58   1.552       .  S
C57        C1403   1.486       .  S
C58          C62   1.558       .  S
C58          C60   1.545       .  S
C58          H64   1.109       .  S
C59          H65   1.085       .  S
C59          C60   1.369       .  D
C60        C1358   1.489       .  S
C61          H66   1.087       .  S
C61          C62   1.357       .  D
C62        C1368   1.456       .  S
O67          C78   1.293       .  A
O67        Eu103   2.463       .  S
O68          C79   1.297       .  A
O68        Eu102   2.492       .  S
O69          C80   1.289       .  A
O69         Eu75   2.443       .  S
O70          C81   1.292       .  A
O70         Eu75   2.458       .  S
O71          C81   1.288       .  A
O71        Eu105   2.438       .  S
O72          C80   1.290   1_565  A
O72        Eu104   2.452       .  S
O73          C79   1.290       .  A
O73         Eu75   2.449       .  S
O74          C78   1.290       .  A
O74         Eu75   2.449       .  S
Eu75         O85   2.333       .  S
Eu75         O77   2.362       .  S
Eu75         O76   2.367       .  S
Eu75         O83   2.335       .  S
O76        Eu105   2.364       .  S
O76        Eu102   2.364       .  S
O77        Eu103   2.370       .  S
O77        Eu104   2.363   1_545  S
C78        C1361   1.473       .  S
C79        C1308   1.483       .  S
C80        C1248   1.478       .  S
C81        C1288   1.477       .  S
H82          O83   0.963       .  S
O83        Eu104   2.318   1_545  S
O83        Eu102   2.346       .  S
H84          O85   0.964       .  S
O85        Eu103   2.345       .  S
O85        Eu105   2.320       .  S
O86         C109   1.294       .  A
O86        Eu102   2.471   1_565  S
O87         C110   1.297       .  A
O87        Eu103   2.490   1_565  S
O88         C111   1.290       .  A
O88        Eu104   2.446       .  S
O89         C112   1.290       .  A
O89        Eu105   2.444       .  S
O90         C113   1.289       .  A
O90        Eu105   2.440       .  S
O91         C114   1.287       .  A
O91        Eu104   2.429       .  S
O92         C115   1.288       .  A
O92        Eu106   2.433       .  S
O93         C116   1.291   1_565  A
O93        Eu106   2.450       .  S
O94         C115   1.290       .  A
O94        Eu104   2.452       .  S
O95         C116   1.288       .  A
O95        Eu105   2.433       .  S
O96         C111   1.289       .  A
O96        Eu102   2.441   1_565  S
O97         C114   1.292       .  A
O97        Eu103   2.455   1_565  S
O98         C113   1.296       .  A
O98        Eu103   2.482       .  S
O99         C112   1.294       .  A
O99        Eu102   2.470       .  S
O100        C109   1.293       .  A
O100       Eu106   2.460       .  S
O101        C110   1.294       .  A
O101       Eu106   2.470       .  S
Eu102       O120   2.344       .  S
Eu102       O108   2.366   1_545  S
Eu103       O107   2.359       .  S
Eu103       O118   2.347   1_545  S
Eu104       O118   2.329       .  S
Eu104       O108   2.358       .  S
Eu105       O107   2.366       .  S
Eu105       O120   2.320       .  S
Eu106       O107   2.361   1_565  S
Eu106       O118   2.331       .  S
Eu106       O120   2.332   1_565  S
Eu106       O108   2.362       .  S
C109       C1331   1.480       .  S
C110       C1258   1.491       .  S
C111       C1318   1.468       .  S
C112       C1338   1.485       .  S
C113       C1281   1.486       .  S
C114       C1271   1.463       .  S
C115       C1301   1.474       .  S
C116       C1238   1.473       .  S
H117        O118   0.963       .  S
H119        O120   0.964       .  S
C121        C122   1.532   1_554  S
C121        C127   1.525       .  S
C121        C125   1.538       .  S
C121       C1226   1.516       .  S
C122        H129   1.081       .  S
C122        C123   1.365       .  D
C123        C124   1.552   1_556  S
C123       C1460   1.493       .  S
C124        C128   1.560       .  S
C124        C126   1.542       .  S
C124        H130   1.111       .  S
C125        H131   1.087       .  S
C125        C126   1.363       .  D
C126       C1328   1.474       .  S
C127        H132   1.087       .  S
C127        C128   1.358       .  D
C128       C1235   1.455       .  S
C133        C134   1.535   1_556  S
C133        C139   1.532   1_556  S
C133        C137   1.543       .  S
C133       C1214   1.522       .  S
C134        H141   1.086       .  S
C134        C135   1.366       .  D
C135        C136   1.540   1_554  S
C135       C1321   1.482       .  S
C136        C140   1.542   1_556  S
C136        C138   1.540       .  S
C136        H142   1.109   1_556  S
C137        H143   1.082       .  S
C137        C138   1.362       .  D
C138       C1473   1.476       .  S
C139        H144   1.087       .  S
C139        C140   1.362       .  D
C140       C1224   1.450       .  S
C145        C146   1.534       .  S
C145        C151   1.530       .  S
C145        C149   1.542       .  S
C145       C1202   1.524       .  S
C146        H153   1.084       .  S
C146        C147   1.368       .  D
C147        C148   1.544       .  S
C147       C1268   1.490       .  S
C148        C152   1.539       .  S
C148        C150   1.543       .  S
C148        H154   1.107       .  S
C149        H155   1.081       .  S
C149        C150   1.363       .  D
C150       C1410   1.483       .  S
C151        H156   1.087       .  S
C151        C152   1.362       .  D
C152       C1212   1.446       .  S
C157        C158   1.540       .  S
C157        C163   1.528   1_554  S
C157        C161   1.535   1_554  S
C157       C1193   1.517       .  S
C158        H165   1.082       .  S
C158        C159   1.370       .  D
C159        C160   1.544   1_554  S
C159       C1341   1.493       .  S
C160        C164   1.544       .  S
C160        C162   1.531       .  S
C160        H166   1.110       .  S
C161        H167   1.087       .  S
C161        C162   1.357       .  D
C162       C1450   1.453       .  S
C163        H168   1.087       .  S
C163        C164   1.361       .  D
C164       C1199   1.449       .  S
C169        C170   1.539       .  S
C169        C175   1.527       .  S
C169        C173   1.535   1_556  S
C169       C1178   1.519   1_556  S
C170        H177   1.086       .  S
C170        C171   1.367       .  D
C171        C172   1.544       .  S
C171       C1483   1.489       .  S
C172        C176   1.559       .  S
C172        C174   1.552   1_556  S
C172        H178   1.110       .  S
C173        H179   1.082       .  S
C173        C174   1.360       .  D
C174       C1311   1.484       .  S
C175        H180   1.087       .  S
C175        C176   1.359       .  D
C176       C1187   1.458       .  S
C181        C182   1.537       .  S
C181        C187   1.527       .  S
C181        C185   1.535       .  S
C181       C1169   1.522       .  S
C182        H189   1.083       .  S
C182        C183   1.366       .  D
C183        C184   1.547       .  S
C183       C1278   1.490       .  S
C184        C188   1.544       .  S
C184        C186   1.545       .  S
C184        H190   1.106       .  S
C185        H191   1.083       .  S
C185        C186   1.371       .  D
C186       C1393   1.493       .  S
C187        H192   1.087       .  S
C187        C188   1.359       .  D
C188       C1175   1.450       .  S
C193        C194   1.538       .  S
C193        C199   1.525       .  S
C193        C197   1.539       .  S
C193       C1154   1.521       .  S
C194        H201   1.085       .  S
C194        C195   1.369       .  D
C195        C196   1.543       .  S
C195       C1423   1.489       .  S
C196        C200   1.557       .  S
C196        C198   1.552       .  S
C196        H202   1.109       .  S
C197        H203   1.083       .  S
C197        C198   1.363       .  D
C198       C1261   1.490       .  S
C199        H204   1.087       .  S
C199        C200   1.357       .  D
C200       C1163   1.456       .  S
O205        C216   1.289       .  A
O205       Eu241   2.440       .  S
O206        C217   1.290   1_455  A
O206       Eu240   2.443       .  S
O207        C218   1.285       .  A
O207       Eu213   2.418       .  S
O208        C219   1.286       .  A
O208       Eu213   2.423       .  S
O209        C219   1.293       .  A
O209       Eu243   2.463       .  S
O210        C218   1.295       .  A
O210       Eu242   2.473       .  S
O211        C217   1.290       .  A
O211       Eu213   2.452       .  S
O212        C216   1.290       .  A
O212       Eu213   2.456       .  S
Eu213       O223   2.326       .  S
Eu213       O215   2.360       .  S
Eu213       O214   2.356       .  S
Eu213       O221   2.325       .  S
O214       Eu243   2.367       .  S
O214       Eu240   2.369   1_655  S
O215       Eu241   2.364       .  S
O215       Eu242   2.373       .  S
C216       C1205   1.478       .  S
C217       C1054   1.478       .  S
C218       C1124   1.474       .  S
C219       C1104   1.471       .  S
H220        O221   0.964       .  S
O221       Eu242   2.345       .  S
O221       Eu240   2.323   1_655  S
H222        O223   0.964       .  S
O223       Eu241   2.331       .  S
O223       Eu243   2.353       .  S
O224        C247   1.291       .  A
O224       Eu240   2.455       .  S
O225        C248   1.291       .  A
O225       Eu241   2.455       .  S
O226        C249   1.298       .  A
O226       Eu242   2.496   1_455  S
O227        C250   1.294       .  A
O227       Eu243   2.466   1_455  S
O228        C251   1.296       .  A
O228       Eu243   2.488       .  S
O229        C252   1.294       .  A
O229       Eu242   2.463       .  S
O230        C253   1.290       .  A
O230       Eu244   2.447       .  S
O231        C254   1.292       .  A
O231       Eu244   2.455       .  S
O232        C253   1.298       .  A
O232       Eu242   2.492   1_455  S
O233        C254   1.295       .  A
O233       Eu243   2.479   1_455  S
O234        C249   1.296       .  A
O234       Eu240   2.477       .  S
O235        C252   1.291       .  A
O235       Eu241   2.452       .  S
O236        C251   1.293       .  A
O236       Eu241   2.462       .  S
O237        C250   1.291       .  A
O237       Eu240   2.449       .  S
O238        C247   1.288       .  A
O238       Eu244   2.434       .  S
O239        C248   1.288   1_455  A
O239       Eu244   2.435       .  S
Eu240       O258   2.334       .  S
Eu240       O246   2.362       .  S
Eu241       O245   2.368       .  S
Eu241       O256   2.326       .  S
Eu242       O256   2.344       .  S
Eu242       O246   2.367   1_655  S
Eu243       O245   2.370       .  S
Eu243       O258   2.349   1_655  S
Eu244       O245   2.366   1_455  S
Eu244       O256   2.315   1_455  S
Eu244       O258   2.316       .  S
Eu244       O246   2.374       .  S
C247       C1157   1.476       .  S
C248       C1064   1.475       .  S
C249       C1114   1.501       .  S
C250       C1074   1.470       .  S
C251       C1094   1.489       .  S
C252       C1134   1.474       .  S
C253       C1144   1.491       .  S
C254       C1084   1.490       .  S
H255        O256   0.963       .  S
H257        O258   0.964       .  S
O259        C270   1.291       .  A
O259       Eu295   2.454       .  S
O260        C271   1.290   1_455  A
O260       Eu294   2.447       .  S
O261        C272   1.290       .  A
O261       Eu267   2.444       .  S
O262        C273   1.290       .  A
O262       Eu267   2.446       .  S
O263        C273   1.295       .  A
O263       Eu297   2.479       .  S
O264        C272   1.297       .  A
O264       Eu296   2.489       .  S
O265        C271   1.287       .  A
O265       Eu267   2.427       .  S
O266        C270   1.287       .  A
O266       Eu267   2.429       .  S
Eu267       O277   2.372       .  S
Eu267       O269   2.320       .  S
Eu267       O268   2.319       .  S
Eu267       O275   2.369       .  S
O268       Eu297   2.339       .  S
O268       Eu294   2.328   1_655  S
O269       Eu295   2.332       .  S
O269       Eu296   2.338       .  S
C270       C1351   1.472       .  S
C271        C957   1.471       .  S
C272        C974   1.492       .  S
C273       C1034   1.487       .  S
H274        O275   0.971       .  S
O275       Eu296   2.362       .  S
O275       Eu294   2.364   1_655  S
H276        O277   0.967       .  S
O277       Eu295   2.369       .  S
O277       Eu297   2.367       .  S
O278        C301   1.288       .  A
O278       Eu294   2.432       .  S
O279        C302   1.289       .  A
O279       Eu295   2.445       .  S
O280        C303   1.296       .  A
O280       Eu296   2.484   1_455  S
O281        C304   1.292       .  A
O281       Eu297   2.465   1_455  S
O282        C305   1.296       .  A
O282       Eu297   2.485       .  S
O283        C306   1.293       .  A
O283       Eu296   2.461       .  S
O284        C307   1.286       .  A
O284       Eu298   2.422       .  S
O285        C308   1.286       .  A
O285       Eu298   2.424       .  S
O286        C307   1.294       .  A
O286       Eu296   2.471   1_455  S
O287        C308   1.293       .  A
O287       Eu297   2.465   1_455  S
O288        C303   1.292       .  A
O288       Eu294   2.459       .  S
O289        C306   1.289       .  A
O289       Eu295   2.441       .  S
O290        C305   1.292       .  A
O290       Eu295   2.457       .  S
O291        C304   1.289       .  A
O291       Eu294   2.447       .  S
O292        C301   1.292       .  A
O292       Eu298   2.462       .  S
O293        C302   1.292   1_455  A
O293       Eu298   2.465       .  S
Eu294       O312   2.365       .  S
Eu294       O300   2.330       .  S
Eu295       O299   2.325       .  S
Eu295       O310   2.364       .  S
Eu296       O310   2.369       .  S
Eu296       O300   2.343   1_655  S
Eu297       O299   2.342       .  S
Eu297       O312   2.361   1_655  S
Eu298       O299   2.328   1_455  S
Eu298       O310   2.361   1_455  S
Eu298       O312   2.360       .  S
Eu298       O300   2.333       .  S
C301       C1166   1.476       .  S
C302        C964   1.482       .  S
C303       C1004   1.496       .  S
C304       C1044   1.464       .  S
C305       C1024   1.491       .  S
C306        C984   1.473       .  S
C307        C994   1.476       .  S
C308       C1017   1.472       .  S
H309        O310   0.965       .  S
H311        O312   0.966       .  S
C313        C314   1.540       .  S
C313        C319   1.524       .  S
C313        C317   1.533       .  S
C313        C942   1.516       .  S
C314        H321   1.085       .  S
C314        C315   1.370       .  D
C315        C316   1.543       .  S
C315        C987   1.487       .  S
C316        C320   1.557       .  S
C316        C318   1.552       .  S
C316        H322   1.109       .  S
C317        H323   1.083       .  S
C317        C318   1.359       .  D
C318       C1097   1.487       .  S
C319        H324   1.087       .  S
C319        C320   1.358       .  D
C320        C951   1.456       .  S
C325        C326   1.542       .  S
C325        C331   1.527       .  S
C325        C329   1.538       .  S
C325        C930   1.524       .  S
C326        H333   1.079       .  S
C326        C327   1.374       .  D
C327        C328   1.545       .  S
C327       C1087   1.503       .  S
C328        C332   1.544       .  S
C328        C330   1.535       .  S
C328        H334   1.109       .  S
C329        H335   1.087       .  S
C329        C330   1.362       .  D
C330        C997   1.465       .  S
C331        H336   1.087       .  S
C331        C332   1.360       .  D
C332        C939   1.448       .  S
C337        C338   1.538   1_545  S
C337        C343   1.524       .  S
C337        C341   1.542       .  S
C337       C1251   1.522       .  S
C338        H345   1.086       .  S
C338        C339   1.359       .  D
C339        C340   1.532   1_565  S
C339       C1127   1.463       .  S
C340        C344   1.542       .  S
C340        C342   1.549       .  S
C340        H346   1.108       .  S
C341        H347   1.082       .  S
C341        C342   1.376       .  D
C342       C1037   1.506       .  S
C343        H348   1.087       .  S
C343        C344   1.359       .  D
C344        C928   1.443   1_545  S
C349        C350   1.534       .  S
C349        C355   1.524   1_545  S
C349        C353   1.536   1_545  S
C349       C1383   1.513       .  S
C350        H357   1.083       .  S
C350        C351   1.361       .  D
C351        C352   1.553   1_545  S
C351       C1027   1.487       .  S
C352        C356   1.558       .  S
C352        C354   1.545       .  S
C352        H358   1.109       .  S
C353        H359   1.086       .  S
C353        C354   1.367       .  D
C354       C1137   1.486       .  S
C355        H360   1.087       .  S
C355        C356   1.357       .  D
C356        C926   1.455       .  S
C361        C362   1.538       .  S
C361        C367   1.530       .  S
C361        C365   1.544       .  S
C361        C914   1.528       .  S
C362        H369   1.086       .  S
C362        C363   1.360       .  D
C363        C364   1.532       .  S
C363       C1107   1.461       .  S
C364        C368   1.542       .  S
C364        C366   1.546       .  S
C364        H370   1.110       .  S
C365        H371   1.081       .  S
C365        C366   1.372       .  D
C366        C977   1.501       .  S
C367        H372   1.087       .  S
C367        C368   1.363       .  D
C368        C923   1.447       .  S
C373        C374   1.534       .  S
C373        C379   1.528       .  S
C373        C377   1.535       .  S
C373        C905   1.519       .  S
C374        H381   1.080       .  S
C374        C375   1.365       .  D
C375        C376   1.554       .  S
C375       C1007   1.495       .  S
C376        C380   1.560       .  S
C376        C378   1.539       .  S
C376        H382   1.111       .  S
C377        H383   1.087       .  S
C377        C378   1.360       .  D
C378       C1077   1.468       .  S
C379        H384   1.087       .  S
C379        C380   1.360       .  D
C380        C912   1.458       .  S
C385        C386   1.535       .  S
C385        C391   1.527       .  S
C385        C389   1.538   1_545  S
C385       C1241   1.519       .  S
C386        H393   1.087       .  S
C386        C387   1.363       .  D
C387        C388   1.541       .  S
C387       C1047   1.477       .  S
C388        C392   1.562       .  S
C388        C390   1.554   1_545  S
C388        H394   1.110       .  S
C389        H395   1.083       .  S
C389        C390   1.366       .  D
C390       C1117   1.495       .  S
C391        H396   1.087       .  S
C391        C392   1.359       .  D
C392        C899   1.463       .  S
C397        C398   1.550   1_545  S
C397        C403   1.529       .  S
C397        C401   1.536       .  S
C397       C1373   1.528       .  S
C398        H405   1.080       .  S
C398        C399   1.373       .  D
C399        C400   1.543   1_565  S
C399       C1147   1.497       .  S
C400        C404   1.542       .  S
C400        C402   1.533       .  S
C400        H406   1.110       .  S
C401        H407   1.087       .  S
C401        C402   1.360       .  D
C402       C1014   1.462       .  S
C403        H408   1.087       .  S
C403        C404   1.360       .  D
C404        C898   1.447       .  S
O409        C420   1.288       .  A
O409       Eu445   2.435       .  S
O410        C421   1.289       .  A
O410       Eu444   2.441       .  S
O411        C422   1.287       .  A
O411       Eu417   2.428       .  S
O412        C423   1.287       .  A
O412       Eu417   2.432       .  S
O413        C423   1.291       .  A
O413       Eu447   2.459       .  S
O414        C422   1.291       .  A
O414       Eu446   2.449       .  S
O415        C421   1.293       .  A
O415       Eu417   2.471       .  S
O416        C420   1.290   1_554  A
O416       Eu417   2.450       .  S
Eu417       O427   2.328       .  S
Eu417       O419   2.361   1_554  S
Eu417       O418   2.352       .  S
Eu417       O425   2.319       .  S
O418       Eu447   2.373       .  S
O418       Eu444   2.368       .  S
O419       Eu445   2.360       .  S
O419       Eu446   2.366   1_556  S
C420       C1217   1.474       .  S
C421        C917   1.484       .  S
C422        C828   1.467       .  S
C423        C888   1.463       .  S
H424        O425   0.964       .  S
O425       Eu446   2.346       .  S
O425       Eu444   2.321       .  S
H426        O427   0.964       .  S
O427       Eu445   2.330   1_554  S
O427       Eu447   2.345       .  S
O428        C451   1.291       .  A
O428       Eu444   2.455       .  S
O429        C452   1.291       .  A
O429       Eu445   2.454       .  S
O430        C453   1.298       .  A
O430       Eu446   2.498       .  S
O431        C454   1.292       .  A
O431       Eu447   2.456       .  S
O432        C455   1.297       .  A
O432       Eu447   2.494   1_556  S
O433        C456   1.294       .  A
O433       Eu446   2.465   1_556  S
O434        C457   1.288       .  A
O434       Eu448   2.434       .  S
O435        C458   1.289       .  A
O435       Eu448   2.444       .  S
O436        C457   1.296       .  A
O436       Eu446   2.484   1_556  S
O437        C458   1.295       .  A
O437       Eu447   2.477   1_556  S
O438        C453   1.294       .  A
O438       Eu444   2.468       .  S
O439        C456   1.291       .  A
O439       Eu445   2.452       .  S
O440        C455   1.293       .  A
O440       Eu445   2.462       .  S
O441        C454   1.289       .  A
O441       Eu444   2.439       .  S
O442        C451   1.287   1_556  A
O442       Eu448   2.428       .  S
O443        C452   1.286       .  A
O443       Eu448   2.422       .  S
Eu444       O462   2.337       .  S
Eu444       O450   2.362       .  S
Eu445       O449   2.363       .  S
Eu445       O460   2.331       .  S
Eu446       O460   2.346   1_554  S
Eu446       O450   2.364       .  S
Eu447       O449   2.360   1_554  S
Eu447       O462   2.349       .  S
Eu448       O449   2.365       .  S
Eu448       O460   2.320       .  S
Eu448       O462   2.314   1_556  S
Eu448       O450   2.370   1_556  S
C451       C1181   1.473       .  S
C452        C945   1.471       .  S
C453        C818   1.499       .  S
C454        C858   1.466       .  S
C455        C878   1.488       .  S
C456        C838   1.474       .  S
C457        C848   1.479       .  S
C458        C868   1.485       .  S
H459        O460   0.964       .  S
H461        O462   0.965       .  S
O463        C474   1.290       .  A
O463       Eu499   2.448       .  S
O464        C475   1.291       .  A
O464       Eu498   2.451       .  S
O465        C476   1.291       .  A
O465       Eu471   2.450       .  S
O466        C477   1.290       .  A
O466       Eu471   2.445       .  S
O467        C477   1.295       .  A
O467       Eu501   2.477       .  S
O468        C476   1.296       .  A
O468       Eu500   2.480   1_554  S
O469        C475   1.287       .  A
O469       Eu471   2.431       .  S
O470        C474   1.286   1_554  A
O470       Eu471   2.422       .  S
Eu471       O481   2.374       .  S
Eu471       O473   2.319   1_554  S
Eu471       O472   2.315       .  S
Eu471       O479   2.369       .  S
O472       Eu501   2.339       .  S
O472       Eu498   2.326       .  S
O473       Eu499   2.328       .  S
O473       Eu500   2.339       .  S
C474       C1229   1.469   1_556  S
C475        C902   1.471       .  S
C476        C758   1.491       .  S
C477        C798   1.485       .  S
H478        O479   0.967       .  S
O479       Eu500   2.362   1_554  S
O479       Eu498   2.363       .  S
H480        O481   0.966       .  S
O481       Eu499   2.368   1_554  S
O481       Eu501   2.363       .  S
O482        C505   1.288       .  A
O482       Eu498   2.435       .  S
O483        C506   1.287       .  A
O483       Eu499   2.432       .  S
O484        C507   1.296       .  A
O484       Eu500   2.484   1_554  S
O485        C508   1.292       .  A
O485       Eu501   2.459       .  S
O486        C509   1.297       .  A
O486       Eu501   2.493   1_556  S
O487        C510   1.293       .  A
O487       Eu500   2.461       .  S
O488        C511   1.285       .  A
O488       Eu502   2.413       .  S
O489        C512   1.286       .  A
O489       Eu502   2.424       .  S
O490        C511   1.295       .  A
O490       Eu500   2.473       .  S
O491        C512   1.292       .  A
O491       Eu501   2.457   1_556  S
O492        C507   1.292       .  A
O492       Eu498   2.462       .  S
O493        C510   1.290       .  A
O493       Eu499   2.445       .  S
O494        C509   1.290       .  A
O494       Eu499   2.453       .  S
O495        C508   1.291       .  A
O495       Eu498   2.452       .  S
O496        C505   1.290   1_556  A
O496       Eu502   2.451       .  S
O497        C506   1.292       .  A
O497       Eu502   2.463       .  S
Eu498       O516   2.373       .  S
Eu498       O504   2.330       .  S
Eu499       O503   2.323       .  S
Eu499       O514   2.366       .  S
Eu500       O514   2.364       .  S
Eu500       O504   2.339   1_556  S
Eu501       O503   2.330   1_554  S
Eu501       O516   2.363       .  S
Eu502       O503   2.319       .  S
Eu502       O514   2.361       .  S
Eu502       O516   2.362   1_556  S
Eu502       O504   2.334   1_556  S
C505       C1190   1.473       .  S
C506        C933   1.478       .  S
C507        C748   1.493       .  S
C508        C808   1.471       .  S
C509        C788   1.492       .  S
C510        C768   1.475       .  S
C511        C738   1.475       .  S
C512        C778   1.469       .  S
H513        O514   0.965       .  S
H515        O516   0.967       .  S
C517        C518   1.541   1_655  S
C517        C523   1.526   1_655  S
C517        C521   1.535       .  S
C517       C1067   1.521       .  S
C518        H525   1.086       .  S
C518        C519   1.369       .  D
C519        C520   1.543       .  S
C519        C771   1.488       .  S
C520        C524   1.559       .  S
C520        C522   1.552   1_455  S
C520        H526   1.110       .  S
C521        H527   1.082       .  S
C521        C522   1.360       .  D
C522        C881   1.487       .  S
C523        H528   1.087       .  S
C523        C524   1.359       .  D
C524        C736   1.458       .  S
C529        C530   1.544       .  S
C529        C535   1.526       .  S
C529        C533   1.537   1_655  S
C529        C967   1.525       .  S
C530        H537   1.081       .  S
C530        C531   1.372       .  D
C531        C532   1.546       .  S
C531        C871   1.499       .  S
C532        C536   1.543       .  S
C532        C534   1.536   1_655  S
C532        H538   1.109       .  S
C533        H539   1.086       .  S
C533        C534   1.361       .  D
C534        C741   1.466       .  S
C535        H540   1.087       .  S
C535        C536   1.359       .  D
C536        C733   1.444   1_655  S
C541        C542   1.537       .  S
C541        C547   1.525       .  S
C541        C545   1.535       .  S
C541       C1440   1.513       .  S
C542        H549   1.082       .  S
C542        C543   1.363       .  D
C543        C544   1.555       .  S
C543        C791   1.490       .  S
C544        C548   1.556       .  S
C544        C546   1.545       .  S
C544        H550   1.109       .  S
C545        H551   1.086       .  S
C545        C546   1.364       .  D
C546        C841   1.488       .  S
C547        H552   1.087       .  S
C547        C548   1.357       .  D
C548        C731   1.452       .  S
C553        C554   1.530       .  S
C553        C559   1.527       .  S
C553        C557   1.541       .  S
C553       C1298   1.523       .  S
C554        H561   1.087       .  S
C554        C555   1.363       .  D
C555        C556   1.545       .  S
C555        C831   1.475       .  S
C556        C560   1.545       .  S
C556        C558   1.550       .  S
C556        H562   1.108       .  S
C557        H563   1.077       .  S
C557        C558   1.373       .  D
C558        C801   1.508       .  S
C559        H564   1.087       .  S
C559        C560   1.360       .  D
C560        C730   1.450       .  S
C565        C566   1.533   1_655  S
C565        C571   1.525       .  S
C565        C569   1.534       .  S
C565        C954   1.515       .  S
C566        H573   1.084       .  S
C566        C567   1.361       .  D
C567        C568   1.553   1_455  S
C567        C751   1.489       .  S
C568        C572   1.557       .  S
C568        C570   1.544       .  S
C568        H574   1.109       .  S
C569        H575   1.086       .  S
C569        C570   1.366       .  D
C570        C861   1.483       .  S
C571        H576   1.087       .  S
C571        C572   1.358       .  D
C572        C727   1.455       .  S
C577        C578   1.538       .  S
C577        C583   1.532       .  S
C577        C581   1.545   1_655  S
C577       C1057   1.525       .  S
C578        H585   1.087       .  S
C578        C579   1.362       .  D
C579        C580   1.529       .  S
C579        C891   1.457       .  S
C580        C584   1.540       .  S
C580        C582   1.541   1_655  S
C580        H586   1.111       .  S
C581        H587   1.081       .  S
C581        C582   1.369       .  D
C582        C761   1.492       .  S
C583        H588   1.087       .  S
C583        C584   1.362       .  D
C584        C726   1.447       .  S
C589        C590   1.544       .  S
C589        C595   1.529       .  S
C589        C593   1.541       .  S
C589       C1433   1.523       .  S
C590        H597   1.084       .  S
C590        C591   1.364       .  D
C591        C592   1.539       .  S
C591        C851   1.477       .  S
C592        C596   1.537       .  S
C592        C594   1.535       .  S
C592        H598   1.109       .  S
C593        H599   1.086       .  S
C593        C594   1.369       .  D
C594        C781   1.481       .  S
C595        H600   1.087       .  S
C595        C596   1.360       .  D
C596        C723   1.444       .  S
C601        C602   1.536       .  S
C601        C607   1.532       .  S
C601        C605   1.538       .  S
C601       C1291   1.526       .  S
C602        H609   1.087       .  S
C602        C603   1.362       .  D
C603        C604   1.536       .  S
C603        C811   1.469       .  S
C604        C608   1.555       .  S
C604        C606   1.550       .  S
C604        H610   1.111       .  S
C605        H611   1.081       .  S
C605        C606   1.367       .  D
C606        C821   1.494       .  S
C607        H612   1.087       .  S
C607        C608   1.362       .  D
C608        C721   1.457       .  S
O613        C624   1.305       .  A
O613       Eu649   2.548       .  S
O614        C625   1.295       .  A
O614       Eu648   2.495       .  S
O615        C626   1.303       .  A
O615       Eu621   2.535       .  S
O616        C627   1.297       .  A
O616       Eu621   2.502       .  S
O617        C627   1.287       .  A
O617       Eu651   2.438       .  S
O618        C626   1.281       .  A
O618       Eu650   2.408       .  S
O619        C625   1.286       .  A
O619       Eu621   2.436       .  S
O620        C624   1.280       .  A
O620       Eu621   2.401       .  S
Eu621       O631   2.362       .  S
Eu621       O623   2.347       .  S
Eu621       O622   2.368       .  S
Eu621       O629   2.345       .  S
O622       Eu651   2.374       .  S
O622       Eu648   2.370       .  S
O623       Eu649   2.341       .  S
O623       Eu650   2.357       .  S
C624       C1367   1.448       .  S
C625        C724   1.437       .  S
C626        C952   1.448       .  S
C627       C1176   1.443       .  S
H628        O629   0.966       .  S
O629       Eu650   2.348       .  S
O629       Eu648   2.363       .  S
H630        O631   0.966       .  S
O631       Eu649   2.347       .  S
O631       Eu651   2.345       .  S
O632        C655   1.303       .  A
O632       Eu648   2.536       .  S
O633        C656   1.296       .  A
O633       Eu649   2.495       .  S
O634        C657   1.301       .  A
O634       Eu650   2.527       .  S
O635        C658   1.295       .  A
O635       Eu651   2.489       .  S
O636        C659   1.304       .  A
O636       Eu651   2.540       .  S
O637        C660   1.295       .  A
O637       Eu650   2.492       .  S
O638        C661   1.295       .  A
O638       Eu652   2.491       .  S
O639        C662   1.303       .  A
O639       Eu652   2.539       .  S
O640        C661   1.286       .  A
O640       Eu650   2.433       .  S
O641        C662   1.282       .  A
O641       Eu651   2.417       .  S
O642        C657   1.282       .  A
O642       Eu648   2.416       .  S
O643        C660   1.286       .  A
O643       Eu649   2.433       .  S
O644        C659   1.281       .  A
O644       Eu649   2.403       .  S
O645        C658   1.289       .  A
O645       Eu648   2.450       .  S
O646        C655   1.280       .  A
O646       Eu652   2.404       .  S
O647        C656   1.288       .  A
O647       Eu652   2.443       .  S
Eu648       O666   2.347       .  S
Eu648       O654   2.342       .  S
Eu649       O653   2.361       .  S
Eu649       O664   2.376       .  S
Eu650       O664   2.373       .  S
Eu650       O654   2.341       .  S
Eu651       O653   2.342       .  S
Eu651       O666   2.364       .  S
Eu652       O653   2.342       .  S
Eu652       O664   2.378       .  S
Eu652       O666   2.349       .  S
Eu652       O654   2.356       .  S
C655       C1164   1.446       .  S
C656        C729   1.444       .  S
C657        C732   1.444       .  S
C658        C940   1.441       .  S
C659        C722   1.448       .  S
C660        C924   1.439       .  S
C661       C1211   1.438       .  S
C662        C911   1.450       .  S
H663        O664   0.964       .  S
H665        O666   0.966       .  S
O667        C678   1.302       .  A
O667       Eu703   2.529       .  S
O668        C679   1.294       .  A
O668       Eu702   2.486   1_455  S
O669        C680   1.303       .  A
O669       Eu675   2.533       .  S
O670        C681   1.296       .  A
O670       Eu675   2.494   1_545  S
O671        C681   1.289   1_554  A
O671       Eu705   2.453       .  S
O672        C680   1.282   1_655  A
O672       Eu704   2.413       .  S
O673        C679   1.290       .  A
O673       Eu675   2.454   1_545  S
O674        C678   1.284   1_556  A
O674       Eu675   2.423       .  S
Eu675       O685   2.367   1_566  S
Eu675       O677   2.347       .  S
Eu675       O676   2.372   1_565  S
Eu675       O683   2.348   1_455  S
O676       Eu705   2.376   1_556  S
O676       Eu702   2.378   1_455  S
O677       Eu703   2.345   1_556  S
O677       Eu704   2.357   1_455  S
C678       C1236   1.447       .  S
C679        C897   1.440       .  S
C680        C735   1.449       .  S
C681       C1200   1.443       .  S
H682        O683   0.966       .  S
O683       Eu704   2.347       .  S
O683       Eu702   2.366   1_565  S
H684        O685   0.966       .  S
O685       Eu703   2.347   1_545  S
O685       Eu705   2.340       .  S
O686        C709   1.303       .  A
O686       Eu702   2.539       .  S
O687        C710   1.294       .  A
O687       Eu703   2.488   1_655  S
O688        C711   1.301       .  A
O688       Eu704   2.527       .  S
O689        C712   1.294       .  A
O689       Eu705   2.483   1_556  S
O690        C713   1.304       .  A
O690       Eu705   2.544       .  S
O691        C714   1.295       .  A
O691       Eu704   2.490   1_554  S
O692        C715   1.296       .  A
O692       Eu706   2.500   1_565  S
O693        C716   1.303       .  A
O693       Eu706   2.535       .  S
O694        C715   1.286   1_556  A
O694       Eu704   2.435       .  S
O695        C716   1.283       .  A
O695       Eu705   2.418   1_655  S
O696        C711   1.283   1_545  A
O696       Eu702   2.420       .  S
O697        C714   1.286       .  A
O697       Eu703   2.435   1_655  S
O698        C713   1.282       .  A
O698       Eu703   2.416   1_545  S
O699        C712   1.289   1_655  A
O699       Eu702   2.449       .  S
O700        C709   1.281   1_554  A
O700       Eu706   2.410       .  S
O701        C710   1.286   1_545  A
O701       Eu706   2.429       .  S
Eu702       O720   2.343       .  S
Eu702       O708   2.342       .  S
Eu703       O707   2.358   1_465  S
Eu703       O718   2.375   1_455  S
Eu704       O718   2.372   1_556  S
Eu704       O708   2.346   1_565  S
Eu705       O707   2.345   1_455  S
Eu705       O720   2.370   1_454  S
Eu706       O707   2.350       .  S
Eu706       O718   2.375   1_545  S
Eu706       O720   2.343   1_554  S
Eu706       O708   2.355   1_554  S
C709       C1188   1.450       .  S
C710        C927   1.435       .  S
C711        C925   1.446       .  S
C712        C734   1.437       .  S
C713        C900   1.455       .  S
C714        C725   1.439       .  S
C715       C1223   1.443       .  S
C716        C728   1.447       .  S
H717        O718   0.965       .  S
H719        O720   0.966       .  S
C721        C722   1.215       .  T
C723        C724   1.208       .  T
C725        C726   1.209       .  T
C727        C728   1.214       .  T
C729        C730   1.211       .  T
C731        C732   1.213       .  T
C733        C734   1.207       .  T
C735        C736   1.216       .  T
C737        C738   1.411       .  A
C737        C742   1.393       .  A
C737        H743   1.083       .  S
C738        C739   1.402       .  A
C739        C740   1.394       .  A
C739        H744   1.083       .  S
C740        C741   1.400       .  A
C740        H745   1.078       .  S
C741        C742   1.397       .  A
C742        H746   1.084       .  S
C747        C748   1.410       .  A
C747        C752   1.400       .  A
C747        H753   1.083       .  S
C748        C749   1.406       .  A
C749        C750   1.406       .  A
C749        H754   1.083       .  S
C750        C751   1.407       .  A
C750        H755   1.077   1_455  S
C751        C752   1.402       .  A
C752        H756   1.083       .  S
C757        C758   1.408       .  A
C757        C762   1.396       .  A
C757        H763   1.083       .  S
C758        C759   1.408       .  A
C759        C760   1.404       .  A
C759        H764   1.083       .  S
C760        C761   1.407       .  A
C760        H765   1.082       .  S
C761        C762   1.404       .  A
C762        H766   1.083       .  S
C767        C768   1.403       .  A
C767        C772   1.396       .  A
C767        H773   1.083       .  S
C768        C769   1.404       .  A
C769        C770   1.398       .  A
C769        H774   1.083       .  S
C770        C771   1.407       .  A
C770        H775   1.083       .  S
C771        C772   1.405       .  A
C772        H776   1.081       .  S
C777        C778   1.401       .  A
C777        C782   1.392       .  A
C777        H783   1.084       .  S
C778        C779   1.405       .  A
C779        C780   1.394       .  A
C779        H784   1.083       .  S
C780        C781   1.404       .  A
C780        H785   1.082       .  S
C781        C782   1.406       .  A
C782        H786   1.080       .  S
C787        C788   1.411       .  A
C787        C792   1.403       .  A
C787        H793   1.083       .  S
C788        C789   1.403       .  A
C789        C790   1.403       .  A
C789        H794   1.083       .  S
C790        C791   1.406       .  A
C790        H795   1.077       .  S
C791        C792   1.404       .  A
C792        H796   1.083       .  S
C797        C798   1.404       .  A
C797        C802   1.394       .  A
C797        H803   1.083       .  S
C798        C799   1.405       .  A
C799        C800   1.404       .  A
C799        H804   1.083       .  S
C800        C801   1.410       .  A
C800        H805   1.076       .  S
C801        C802   1.410       .  A
C802        H806   1.080       .  S
C807        C808   1.401       .  A
C807        C812   1.395       .  A
C807        H813   1.083       .  S
C808        C809   1.407       .  A
C809        C810   1.399       .  A
C809        H814   1.084       .  S
C810        C811   1.399       .  A
C810        H815   1.083       .  S
C811        C812   1.402       .  A
C812        H816   1.083       .  S
C817        C818   1.410       .  A
C817        C822   1.411       .  A
C817        H823   1.083       .  S
C818        C819   1.410       .  A
C819        C820   1.397       .  A
C819        H824   1.083       .  S
C820        C821   1.403       .  A
C820        H825   1.084       .  S
C821        C822   1.408       .  A
C822        H826   1.082       .  S
C827        C828   1.406       .  A
C827        C832   1.393       .  A
C827        H833   1.083       .  S
C828        C829   1.401       .  A
C829        C830   1.389       .  A
C829        H834   1.083       .  S
C830        C831   1.399       .  A
C830        H835   1.071       .  S
C831        C832   1.403       .  A
C832        H836   1.083       .  S
C837        C838   1.403       .  A
C837        C842   1.398       .  A
C837        H843   1.083       .  S
C838        C839   1.404       .  A
C839        C840   1.395       .  A
C839        H844   1.083       .  S
C840        C841   1.403       .  A
C840        H845   1.080       .  S
C841        C842   1.410       .  A
C842        H846   1.082       .  S
C847        C848   1.401       .  A
C847        C852   1.399       .  A
C847        H853   1.083       .  S
C848        C849   1.411       .  A
C849        C850   1.397       .  A
C849        H854   1.083       .  S
C850        C851   1.398       .  A
C850        H855   1.083       .  S
C851        C852   1.405       .  A
C852        H856   1.079       .  S
C857        C858   1.403       .  A
C857        C862   1.393       .  A
C857        H863   1.082       .  S
C858        C859   1.401       .  A
C859        C860   1.392       .  A
C859        H864   1.083       .  S
C860        C861   1.408       .  A
C860        H865   1.082       .  S
C861        C862   1.403       .  A
C862        H866   1.080       .  S
C867        C868   1.405       .  A
C867        C872   1.401       .  A
C867        H873   1.082       .  S
C868        C869   1.406       .  A
C869        C870   1.396       .  A
C869        H874   1.083       .  S
C870        C871   1.408       .  A
C870        H875   1.082       .  S
C871        C872   1.408       .  A
C872        H876   1.078       .  S
C877        C878   1.404       .  A
C877        C882   1.405       .  A
C877        H883   1.083       .  S
C878        C879   1.409       .  A
C879        C880   1.401       .  A
C879        H884   1.083       .  S
C880        C881   1.402       .  A
C880        H885   1.083       .  S
C881        C882   1.409       .  A
C882        H886   1.081       .  S
C887        C888   1.401       .  A
C887        C892   1.397       .  A
C887        H893   1.083       .  S
C888        C889   1.406       .  A
C889        C890   1.390       .  A
C889        H894   1.084       .  S
C890        C891   1.394       .  A
C890        H895   1.084       .  S
C891        C892   1.402       .  A
C892        H896   1.083       .  S
C897        C898   1.209       .  T
C899        C900   1.220       .  T
C901        C902   1.404       .  A
C901        C906   1.390       .  A
C901        H907   1.083       .  S
C902        C903   1.400       .  A
C903        C904   1.393       .  A
C903        H908   1.083       .  S
C904        C905   1.412       .  A
C904        H909   1.075       .  S
C905        C906   1.405       .  A
C906        H910   1.083       .  S
C911        C912   1.216       .  T
C913        C914   1.408       .  A
C913        C918   1.396       .  A
C913        H919   1.079       .  S
C914        C915   1.410       .  A
C915        C916   1.399       .  A
C915        H920   1.083       .  S
C916        C917   1.404       .  A
C916        H921   1.083       .  S
C917        C918   1.406       .  A
C918        H922   1.083       .  S
C923        C924   1.209       .  T
C925        C926   1.214       .  T
C927        C928   1.207       .  T
C929        C930   1.409       .  A
C929        C934   1.395       .  A
C929        H935   1.078       .  S
C930        C931   1.408       .  A
C931        C932   1.395       .  A
C931        H936   1.083       .  S
C932        C933   1.403       .  A
C932        H937   1.083       .  S
C933        C934   1.405       .  A
C934        H938   1.083       .  S
C939        C940   1.210       .  T
C941        C942   1.404       .  A
C941        C946   1.389       .  A
C941        H947   1.083       .  S
C942        C943   1.411       .  A
C943        C944   1.393       .  A
C943        H948   1.078       .  S
C944        C945   1.401       .  A
C944        H949   1.083       .  S
C945        C946   1.405       .  A
C946        H950   1.083       .  S
C951        C952   1.215       .  T
C953        C954   1.405       .  A
C953        C958   1.388       .  A
C953        H959   1.083       .  S
C954        C955   1.410   1_655  A
C955        C956   1.394       .  A
C955        H960   1.079       .  S
C956        C957   1.402   1_455  A
C956        H961   1.083       .  S
C957        C958   1.404       .  A
C958        H962   1.083       .  S
C963        C964   1.405   1_455  A
C963        C968   1.400       .  A
C963        H969   1.083       .  S
C964        C965   1.405       .  A
C965        C966   1.393       .  A
C965        H970   1.083       .  S
C966        C967   1.407       .  A
C966        H971   1.078       .  S
C967        C968   1.410   1_655  A
C968        H972   1.083       .  S
C973        C974   1.408       .  A
C973        C978   1.397       .  A
C973        H979   1.083       .  S
C974        C975   1.406       .  A
C975        C976   1.405       .  A
C975        H980   1.082       .  S
C976        C977   1.409       .  A
C976        H981   1.080       .  S
C977        C978   1.407       .  A
C978        H982   1.082       .  S
C983        C984   1.404       .  A
C983        C988   1.396       .  A
C983        H989   1.083       .  S
C984        C985   1.402       .  A
C985        C986   1.394       .  A
C985        H990   1.083       .  S
C986        C987   1.405       .  A
C986        H991   1.080       .  S
C987        C988   1.407       .  A
C988        H992   1.082       .  S
C993        C994   1.403       .  A
C993        C998   1.396       .  A
C993        H999   1.083       .  S
C994        C995   1.411       .  A
C995        C996   1.392       .  A
C995       H1000   1.083       .  S
C996        C997   1.395       .  A
C996       H1001   1.084       .  S
C997        C998   1.401       .  A
C998       H1002   1.080       .  S
C1003      C1004   1.411       .  A
C1003      C1008   1.410       .  A
C1003      H1009   1.083       .  S
C1004      C1005   1.408       .  A
C1005      C1006   1.396       .  A
C1005      H1010   1.083       .  S
C1006      C1007   1.405       .  A
C1006      H1011   1.084       .  S
C1007      C1008   1.407       .  A
C1008      H1012   1.081       .  S
C1013      C1014   1.402       .  A
C1013      C1018   1.398       .  A
C1013      H1019   1.082       .  S
C1014      C1015   1.395       .  A
C1015      C1016   1.391       .  A
C1015      H1020   1.084       .  S
C1016      C1017   1.408       .  A
C1016      H1021   1.083       .  S
C1017      C1018   1.404       .  A
C1018      H1022   1.083       .  S
C1023      C1024   1.410       .  A
C1023      C1028   1.401       .  A
C1023      H1029   1.083       .  S
C1024      C1025   1.405       .  A
C1025      C1026   1.405       .  A
C1025      H1030   1.083       .  S
C1026      C1027   1.407       .  A
C1026      H1031   1.080       .  S
C1027      C1028   1.402       .  A
C1028      H1032   1.083       .  S
C1033      C1034   1.405       .  A
C1033      C1038   1.396       .  A
C1033      H1039   1.083       .  S
C1034      C1035   1.405       .  A
C1035      C1036   1.404       .  A
C1035      H1040   1.083       .  S
C1036      C1037   1.412       .  A
C1036      H1041   1.079       .  S
C1037      C1038   1.409       .  A
C1038      H1042   1.080       .  S
C1043      C1044   1.405       .  A
C1043      C1048   1.399       .  A
C1043      H1049   1.084       .  S
C1044      C1045   1.398       .  A
C1045      C1046   1.396       .  A
C1045      H1050   1.083       .  S
C1046      C1047   1.407       .  A
C1046      H1051   1.083       .  S
C1047      C1048   1.400       .  A
C1048      H1052   1.083       .  S
C1053      C1054   1.405       .  A
C1053      C1058   1.398       .  A
C1053      H1059   1.083       .  S
C1054      C1055   1.403   1_655  A
C1055      C1056   1.392       .  A
C1055      H1060   1.083       .  S
C1056      C1057   1.408   1_455  A
C1056      H1061   1.077       .  S
C1057      C1058   1.410       .  A
C1058      H1062   1.083       .  S
C1063      C1064   1.405   1_455  A
C1063      C1068   1.390       .  A
C1063      H1069   1.083       .  S
C1064      C1065   1.402       .  A
C1065      C1066   1.396       .  A
C1065      H1070   1.083       .  S
C1066      C1067   1.413       .  A
C1066      H1071   1.077       .  S
C1067      C1068   1.404   1_655  A
C1068      H1072   1.083       .  S
C1073      C1074   1.402       .  A
C1073      C1078   1.396       .  A
C1073      H1079   1.083       .  S
C1074      C1075   1.407       .  A
C1075      C1076   1.397       .  A
C1075      H1080   1.084       .  S
C1076      C1077   1.398       .  A
C1076      H1081   1.083       .  S
C1077      C1078   1.403       .  A
C1078      H1082   1.083       .  S
C1083      C1084   1.408       .  A
C1083      C1088   1.407       .  A
C1083      H1089   1.083       .  S
C1084      C1085   1.405       .  A
C1085      C1086   1.393       .  A
C1085      H1090   1.083       .  S
C1086      C1087   1.406       .  A
C1086      H1091   1.081       .  S
C1087      C1088   1.412       .  A
C1088      H1092   1.080       .  S
C1093      C1094   1.406       .  A
C1093      C1098   1.406       .  A
C1093      H1099   1.083       .  S
C1094      C1095   1.409       .  A
C1095      C1096   1.397       .  A
C1095      H1100   1.083       .  S
C1096      C1097   1.401       .  A
C1096      H1101   1.083       .  S
C1097      C1098   1.409       .  A
C1098      H1102   1.078       .  S
C1103      C1104   1.402       .  A
C1103      C1108   1.394       .  A
C1103      H1109   1.083       .  S
C1104      C1105   1.410       .  A
C1105      C1106   1.391       .  A
C1105      H1110   1.083       .  S
C1106      C1107   1.395       .  A
C1106      H1111   1.084       .  S
C1107      C1108   1.400       .  A
C1108      H1112   1.080       .  S
C1113      C1114   1.409       .  A
C1113      C1118   1.398       .  A
C1113      H1119   1.083       .  S
C1114      C1115   1.411       .  A
C1115      C1116   1.413       .  A
C1115      H1120   1.083       .  S
C1116      C1117   1.409       .  A
C1116      H1121   1.083   1_565  S
C1117      C1118   1.402       .  A
C1118      H1122   1.083       .  S
C1123      C1124   1.410       .  A
C1123      C1128   1.391       .  A
C1123      H1129   1.083       .  S
C1124      C1125   1.403       .  A
C1125      C1126   1.395       .  A
C1125      H1130   1.083       .  S
C1126      C1127   1.400       .  A
C1126      H1131   1.079       .  S
C1127      C1128   1.396       .  A
C1128      H1132   1.084       .  S
C1133      C1134   1.402       .  A
C1133      C1138   1.395       .  A
C1133      H1139   1.083       .  S
C1134      C1135   1.405       .  A
C1135      C1136   1.397       .  A
C1135      H1140   1.083       .  S
C1136      C1137   1.404       .  A
C1136      H1141   1.081       .  S
C1137      C1138   1.408       .  A
C1138      H1142   1.082       .  S
C1143      C1144   1.405       .  A
C1143      C1148   1.401       .  A
C1143      H1149   1.083       .  S
C1144      C1145   1.410       .  A
C1145      C1146   1.399       .  A
C1145      H1150   1.083       .  S
C1146      C1147   1.406       .  A
C1146      H1151   1.083       .  S
C1147      C1148   1.408       .  A
C1148      H1152   1.080       .  S
C1153      C1154   1.407       .  A
C1153      C1158   1.393       .  A
C1153      H1159   1.083       .  S
C1154      C1155   1.410       .  A
C1155      C1156   1.395       .  A
C1155      H1160   1.077       .  S
C1156      C1157   1.402       .  A
C1156      H1161   1.083       .  S
C1157      C1158   1.405       .  A
C1158      H1162   1.083       .  S
C1163      C1164   1.215       .  T
C1165      C1166   1.402       .  A
C1165      C1170   1.395       .  A
C1165      H1171   1.083       .  S
C1166      C1167   1.405       .  A
C1167      C1168   1.393       .  A
C1167      H1172   1.083       .  S
C1168      C1169   1.407       .  A
C1168      H1173   1.078       .  S
C1169      C1170   1.409       .  A
C1170      H1174   1.083       .  S
C1175      C1176   1.211       .  T
C1177      C1178   1.405   1_556  A
C1177      C1182   1.390       .  A
C1177      H1183   1.083       .  S
C1178      C1179   1.412       .  A
C1179      C1180   1.394       .  A
C1179      H1184   1.076       .  S
C1180      C1181   1.401       .  A
C1180      H1185   1.083       .  S
C1181      C1182   1.405   1_554  A
C1182      H1186   1.083       .  S
C1187      C1188   1.217       .  T
C1189      C1190   1.403   1_556  A
C1189      C1194   1.394       .  A
C1189      H1195   1.083       .  S
C1190      C1191   1.404       .  A
C1191      C1192   1.391       .  A
C1191      H1196   1.083       .  S
C1192      C1193   1.407       .  A
C1192      H1197   1.079       .  S
C1193      C1194   1.408   1_554  A
C1194      H1198   1.083       .  S
C1199      C1200   1.211       .  T
C1201      C1202   1.411       .  A
C1201      C1206   1.400       .  A
C1201      H1207   1.083       .  S
C1202      C1203   1.406       .  A
C1203      C1204   1.390       .  A
C1203      H1208   1.077       .  S
C1204      C1205   1.404       .  A
C1204      H1209   1.083       .  S
C1205      C1206   1.404       .  A
C1206      H1210   1.083       .  S
C1211      C1212   1.208       .  T
C1213      C1214   1.410   1_554  A
C1213      C1218   1.397       .  A
C1213      H1219   1.083       .  S
C1214      C1215   1.407       .  A
C1215      C1216   1.390       .  A
C1215      H1220   1.076       .  S
C1216      C1217   1.403       .  A
C1216      H1221   1.083       .  S
C1217      C1218   1.402   1_556  A
C1218      H1222   1.083       .  S
C1223      C1224   1.211       .  T
C1225      C1226   1.412   1_556  A
C1225      C1230   1.391       .  A
C1225      H1231   1.077       .  S
C1226      C1227   1.404       .  A
C1227      C1228   1.390       .  A
C1227      H1232   1.083       .  S
C1228      C1229   1.405       .  A
C1228      H1233   1.083       .  S
C1229      C1230   1.400   1_554  A
C1230      H1234   1.083       .  S
C1235      C1236   1.215       .  T
C1237      C1238   1.403   1_565  A
C1237      C1242   1.395       .  A
C1237      H1243   1.083       .  S
C1238      C1239   1.404       .  A
C1239      C1240   1.390       .  A
C1239      H1244   1.083       .  S
C1240      C1241   1.406       .  A
C1240      H1245   1.083       .  S
C1241      C1242   1.410   1_545  A
C1242      H1246   1.078       .  S
C1247      C1248   1.406       .  A
C1247      C1252   1.396       .  A
C1247      H1253   1.083       .  S
C1248      C1249   1.403   1_545  A
C1249      C1250   1.393       .  A
C1249      H1254   1.083       .  S
C1250      C1251   1.408   1_565  A
C1250      H1255   1.082       .  S
C1251      C1252   1.407       .  A
C1252      H1256   1.081       .  S
C1257      C1258   1.410       .  A
C1257      C1262   1.402       .  A
C1257      H1263   1.083       .  S
C1258      C1259   1.405       .  A
C1259      C1260   1.406       .  A
C1259      H1264   1.083       .  S
C1260      C1261   1.408       .  A
C1260      H1265   1.080       .  S
C1261      C1262   1.402       .  A
C1262      H1266   1.083       .  S
C1267      C1268   1.406       .  A
C1267      C1272   1.389       .  A
C1267      H1273   1.077       .  S
C1268      C1269   1.411       .  A
C1269      C1270   1.394       .  A
C1269      H1274   1.080       .  S
C1270      C1271   1.401       .  A
C1270      H1275   1.084       .  S
C1271      C1272   1.399       .  A
C1272      H1276   1.084       .  S
C1277      C1278   1.403       .  A
C1277      C1282   1.396       .  A
C1277      H1283   1.083       .  S
C1278      C1279   1.405       .  A
C1279      C1280   1.400       .  A
C1279      H1284   1.073       .  S
C1280      C1281   1.404       .  A
C1280      H1285   1.083       .  S
C1281      C1282   1.410       .  A
C1282      H1286   1.083       .  S
C1287      C1288   1.402       .  A
C1287      C1292   1.398       .  A
C1287      H1293   1.083       .  S
C1288      C1289   1.404       .  A
C1289      C1290   1.393       .  A
C1289      H1294   1.083       .  S
C1290      C1291   1.406       .  A
C1290      H1295   1.083       .  S
C1291      C1292   1.413       .  A
C1292      H1296   1.076       .  S
C1297      C1298   1.408       .  A
C1297      C1302   1.390       .  A
C1297      H1303   1.077       .  S
C1298      C1299   1.410       .  A
C1299      C1300   1.397       .  A
C1299      H1304   1.083       .  S
C1300      C1301   1.403       .  A
C1300      H1305   1.083       .  S
C1301      C1302   1.403       .  A
C1302      H1306   1.083       .  S
C1307      C1308   1.401       .  A
C1307      C1312   1.401       .  A
C1307      H1313   1.083       .  S
C1308      C1309   1.410       .  A
C1309      C1310   1.401       .  A
C1309      H1314   1.084       .  S
C1310      C1311   1.403       .  A
C1310      H1315   1.083       .  S
C1311      C1312   1.406       .  A
C1312      H1316   1.079       .  S
C1317      C1318   1.403       .  A
C1317      C1322   1.392       .  A
C1317      H1323   1.084       .  S
C1318      C1319   1.402       .  A
C1319      C1320   1.393       .  A
C1319      H1324   1.083       .  S
C1320      C1321   1.407       .  A
C1320      H1325   1.082       .  S
C1321      C1322   1.405       .  A
C1322      H1326   1.081       .  S
C1327      C1328   1.398       .  A
C1327      C1332   1.398       .  A
C1327      H1333   1.083       .  S
C1328      C1329   1.404       .  A
C1329      C1330   1.401       .  A
C1329      H1334   1.083       .  S
C1330      C1331   1.405       .  A
C1330      H1335   1.083       .  S
C1331      C1332   1.408       .  A
C1332      H1336   1.083       .  S
C1337      C1338   1.407       .  A
C1337      C1342   1.403       .  A
C1337      H1343   1.083       .  S
C1338      C1339   1.406       .  A
C1339      C1340   1.392       .  A
C1339      H1344   1.083       .  S
C1340      C1341   1.404       .  A
C1340      H1345   1.082       .  S
C1341      C1342   1.408       .  A
C1342      H1346   1.080       .  S
C1347      C1348   1.410       .  A
C1347      C1352   1.394       .  A
C1347      H1353   1.076       .  S
C1348      C1349   1.406       .  A
C1349      C1350   1.390       .  A
C1349      H1354   1.084       .  S
C1350      C1351   1.404       .  A
C1350      H1355   1.083       .  S
C1351      C1352   1.401       .  A
C1352      H1356   1.083       .  S
C1357      C1358   1.406       .  A
C1357      C1362   1.397       .  A
C1357      H1363   1.081       .  S
C1358      C1359   1.408       .  A
C1359      C1360   1.395       .  A
C1359      H1364   1.082       .  S
C1360      C1361   1.402       .  A
C1360      H1365   1.083       .  S
C1361      C1362   1.404       .  A
C1362      H1366   1.084       .  S
C1367      C1368   1.216       .  T
C1369      C1370   1.405   1_565  A
C1369      C1374   1.393       .  A
C1369      H1375   1.083       .  S
C1370      C1371   1.404       .  A
C1371      C1372   1.401       .  A
C1371      H1376   1.083       .  S
C1372      C1373   1.413       .  A
C1372      H1377   1.083       .  S
C1373      C1374   1.406   1_545  A
C1374      H1378   1.077       .  S
C1379      C1380   1.401       .  A
C1379      C1384   1.392       .  A
C1379      H1385   1.083       .  S
C1380      C1381   1.404   1_545  A
C1381      C1382   1.387       .  A
C1381      H1386   1.083       .  S
C1382      C1383   1.404   1_565  A
C1382      H1387   1.083       .  S
C1383      C1384   1.410       .  A
C1384      H1388   1.078       .  S
C1389      C1390   1.397       .  A
C1389      C1394   1.391       .  A
C1389      H1395   1.084       .  S
C1390      C1391   1.398       .  A
C1391      C1392   1.391       .  A
C1391      H1396   1.084       .  S
C1392      C1393   1.409       .  A
C1392      H1397   1.076       .  S
C1393      C1394   1.411       .  A
C1394      H1398   1.079       .  S
C1399      C1400   1.406       .  A
C1399      C1404   1.405       .  A
C1399      H1405   1.083       .  S
C1400      C1401   1.408       .  A
C1401      C1402   1.399       .  A
C1401      H1406   1.083       .  S
C1402      C1403   1.402       .  A
C1402      H1407   1.083       .  S
C1403      C1404   1.408       .  A
C1404      H1408   1.081       .  S
C1409      C1410   1.402       .  A
C1409      C1414   1.397       .  A
C1409      H1415   1.083       .  S
C1410      C1411   1.403       .  A
C1411      C1412   1.396       .  A
C1411      H1416   1.075       .  S
C1412      C1413   1.403       .  A
C1412      H1417   1.083       .  S
C1413      C1414   1.410       .  A
C1414      H1418   1.083       .  S
C1419      C1420   1.401       .  A
C1419      C1424   1.395       .  A
C1419      H1425   1.083       .  S
C1420      C1421   1.405       .  A
C1421      C1422   1.397       .  A
C1421      H1426   1.084       .  S
C1422      C1423   1.406       .  A
C1422      H1427   1.081       .  S
C1423      C1424   1.408       .  A
C1424      H1428   1.082       .  S
C1429      C1430   1.406       .  A
C1429      C1434   1.393       .  A
C1429      H1435   1.083       .  S
C1430      C1431   1.403       .  A
C1431      C1432   1.397       .  A
C1431      H1436   1.083       .  S
C1432      C1433   1.410       .  A
C1432      H1437   1.083       .  S
C1433      C1434   1.407       .  A
C1434      H1438   1.079       .  S
C1439      C1440   1.406       .  A
C1439      C1444   1.386       .  A
C1439      H1445   1.084       .  S
C1440      C1441   1.409       .  A
C1441      C1442   1.393       .  A
C1441      H1446   1.077       .  S
C1442      C1443   1.402       .  A
C1442      H1447   1.083       .  S
C1443      C1444   1.402       .  A
C1444      H1448   1.083       .  S
C1449      C1450   1.400       .  A
C1449      C1454   1.393       .  A
C1449      H1455   1.082       .  S
C1450      C1451   1.394       .  A
C1451      C1452   1.388       .  A
C1451      H1456   1.084       .  S
C1452      C1453   1.408       .  A
C1452      H1457   1.083       .  S
C1453      C1454   1.402       .  A
C1454      H1458   1.083       .  S
C1459      C1460   1.405       .  A
C1459      C1464   1.393       .  A
C1459      H1465   1.084       .  S
C1460      C1461   1.406       .  A
C1461      C1462   1.408       .  A
C1461      H1466   1.081       .  S
C1462      C1463   1.410       .  A
C1462      H1467   1.083       .  S
C1463      C1464   1.408       .  A
C1464      H1468   1.083       .  S
C1469      C1470   1.400       .  A
C1469      C1474   1.399       .  A
C1469      H1475   1.083       .  S
C1470      C1471   1.411       .  A
C1471      C1472   1.398       .  A
C1471      H1476   1.084       .  S
C1472      C1473   1.399       .  A
C1472      H1477   1.083       .  S
C1473      C1474   1.405       .  A
C1474      H1478   1.080       .  S
C1479      C1480   1.405       .  A
C1479      C1484   1.398       .  A
C1479      H1485   1.083       .  S
C1480      C1481   1.405       .  A
C1481      C1482   1.398       .  A
C1481      H1486   1.083       .  S
C1482      C1483   1.404       .  A
C1482      H1487   1.081       .  S
C1483      C1484   1.407       .  A
C1484      H1488   1.083       .  S
