geometry optimzed in LAMMPS
_audit_creation_date              2020-11-30 
_audit_creation_method            'lammps2cif' 
_symmetry_space_group_name_H-M    'P1' 
_symmetry_Int_Tables_number       1 
_symmetry_cell_setting            triclinic 
loop_ 
_symmetry_equiv_pos_as_xyz 
  x,y,z 
_cell_length_a                    45.10588982 
_cell_length_b                    45.001546427341275 
_cell_length_c                    23.96160144585424 
_cell_angle_alpha                 89.73114428582025 
_cell_angle_beta                  88.58382708242864 
_cell_angle_gamma                 120.3330884268039 
loop_ 
_atom_site_label 
_atom_site_type_symbol 
_atom_site_fract_x 
_atom_site_fract_y 
_atom_site_fract_z 
_atom_site_charge 
In1        In  0.80089518  0.60442325  0.50314508     1.36900
C2          C  0.78415229  0.55635151  0.42639166     0.77700
O3          O  0.85085488  0.63333835  0.45396762    -0.60700
O4          O  0.85114351  0.64088702  0.54118361    -0.51600
C5          C  0.77537488  0.64660140  0.50055105     0.70400
O6          O  0.78037159  0.63374981  0.45720754    -0.46500
C7          C  0.77337753  0.55954948  0.58856344     0.75100
O8          O  0.76796687  0.57217427  0.43396747    -0.58300
O9          O  0.80536845  0.57883764  0.58102038    -0.48400
O10         O  0.80964857  0.56603758  0.45705980    -0.54800
C11         C  0.86842068  0.64775615  0.49598849     0.85300
O12         O  0.78423500  0.63841741  0.54479319    -0.56700
O13         O  0.75576814  0.56447293  0.55376645    -0.60000
In14       In  0.80842777  0.19674666  0.49644914     1.36900
C15         C  0.77635259  0.21486788  0.57254816     0.77700
O16         O  0.85745516  0.22091768  0.54367756    -0.60700
O17         O  0.85999842  0.21035222  0.45824044    -0.51600
C18         C  0.78576813  0.12939441  0.50372024     0.70400
O19         O  0.78752167  0.14706613  0.54549115    -0.46500
C20         C  0.79237096  0.22334919  0.41023657     0.75100
O21         O  0.76069516  0.18956767  0.54095324    -0.58300
O22         O  0.81852158  0.24063129  0.43887694    -0.48400
O23         O  0.80865136  0.23013204  0.56662990    -0.54800
C24         C  0.87611702  0.22234781  0.50247441     0.85300
O25         O  0.79638067  0.14642594  0.45848707    -0.56700
O26         O  0.77565570  0.19179503  0.42340881    -0.60000
In27       In  0.60679892  0.80398003  0.49336724     1.36900
C28         C  0.56660347  0.77722168  0.40707128     0.77700
O29         O  0.65145331  0.79913894  0.46082388    -0.60700
O30         O  0.62020776  0.76567107  0.52655881    -0.51600
C31         C  0.65004130  0.87149276  0.49602441     0.70400
O32         O  0.63780683  0.85565827  0.45164952    -0.46500
C33         C  0.55754277  0.78986089  0.57102424     0.75100
O34         O  0.58433423  0.80918336  0.41447680    -0.58300
O35         O  0.58480314  0.78996619  0.58208525    -0.48400
O36         O  0.57122814  0.75905094  0.44217085    -0.54800
C37         C  0.64589531  0.77499788  0.49406293     0.85300
O38         O  0.64016861  0.85259585  0.53945817    -0.56700
O39         O  0.55669473  0.79876584  0.52151825    -0.60000
C40         C  0.66396471  0.32969867  0.78300934    -0.02300
C41         C  0.67824578  0.33623883  0.21187641    -0.02300
In42       In  0.19504770  0.80205019  0.49248409     1.36900
C43         C  0.22525477  0.78247033  0.41543988     0.77700
O44         O  0.22232682  0.85372039  0.44793850    -0.60700
O45         O  0.20541854  0.85190335  0.53147196    -0.51600
C46         C  0.12702840  0.77490073  0.49115425     0.70400
O47         O  0.14611211  0.78840782  0.44816976    -0.46500
C48         C  0.20978070  0.77475877  0.57909430     0.75100
O49         O  0.19333314  0.77140438  0.41675503    -0.58300
O50         O  0.22270743  0.80685495  0.57230238    -0.48400
O51         O  0.24143587  0.80441907  0.45199474    -0.54800
C52         C  0.22084016  0.87039691  0.48891605     0.85300
O53         O  0.14298446  0.77619642  0.53421504    -0.56700
O54         O  0.18877672  0.75705332  0.54246895    -0.60000
In55       In  0.39585075  0.19877834  0.49454150     1.36900
C56         C  0.43948617  0.21631955  0.57777965     0.77700
O57         O  0.36811577  0.14659692  0.53742365    -0.60700
O58         O  0.35922980  0.14948644  0.45206520    -0.51600
C59         C  0.35499940  0.22584763  0.49324686     0.70400
O60         O  0.36250525  0.21622338  0.53744886    -0.46500
C61         C  0.44643838  0.22657571  0.41699687     0.75100
O62         O  0.41986327  0.22847540  0.57204714    -0.58300
O63         O  0.42198641  0.19597134  0.41440426    -0.48400
O64         O  0.43494778  0.19347951  0.54299639    -0.54800
C65         C  0.35302949  0.13045912  0.49457461     0.85300
O66         O  0.36823468  0.22139884  0.44953102    -0.56700
O67         O  0.44348745  0.24333421  0.45648524    -0.60000
In68       In  0.20284126  0.39800380  0.51228412     1.36900
C69         C  0.23223743  0.44330015  0.42871466     0.77700
O70         O  0.15292242  0.37282938  0.46825936    -0.60700
O71         O  0.15173140  0.36017017  0.55375698    -0.51600
C72         C  0.22566765  0.35395080  0.50494013     0.70400
O73         O  0.22397378  0.37022723  0.46346878    -0.46500
C74         C  0.22347768  0.44570910  0.59142380     0.75100
O75         O  0.24894104  0.43528210  0.46079848    -0.58300
O76         O  0.19638996  0.43580828  0.56494876    -0.48400
O77         O  0.20023262  0.42733082  0.43876412    -0.54800
C78         C  0.13482250  0.35585507  0.51029675     0.85300
O79         O  0.21455218  0.35934383  0.55034731    -0.56700
O80         O  0.23862785  0.42931346  0.58030694    -0.60000
C81         C  0.33109457  0.67598691  0.78751780    -0.02300
C82         C  0.34074850  0.66826197  0.21618242    -0.02300
C83         C  0.30670596  0.65275297  0.06493676    -0.27500
C84         C  0.33688444  0.67211082  0.03259676     0.02100
C85         C  0.36808018  0.69155782  0.05922061     0.30200
C86         C  0.36906991  0.69088005  0.11737552    -0.19300
C87         C  0.33931939  0.66954303  0.15109000    -0.28700
C88         C  0.30753607  0.65180864  0.12347351     0.44300
C89         C  0.33567589  0.67276367  0.97100866     0.05400
O90         O  0.39791144  0.71162962  0.02861007    -0.57200
H91         H  0.39361414  0.70780258  0.13527028     0.18400
O92         O  0.27704770  0.63406410  0.15356213    -0.63900
H93         H  0.28228608  0.63859546  0.04472123     0.16800
C94         C  0.32895979  0.64381149  0.93998567     0.29100
C95         C  0.32831630  0.64505827  0.88165945    -0.24800
C96         C  0.33293675  0.67469885  0.85250297    -0.24100
C97         C  0.34282947  0.70463805  0.88453564     0.40500
C98         C  0.34327447  0.70319437  0.94292039    -0.26500
O99         O  0.32361558  0.61427794  0.96627192    -0.58400
H100        H  0.32495845  0.62268342  0.85982989     0.16200
O101        O  0.35060769  0.73522070  0.85933981    -0.59800
H102        H  0.34963148  0.72606538  0.96644188     0.14600
H103        H  0.26622527  0.60978972  0.14171587     0.46500
H104        H  0.34691486  0.61792436  0.97210363     0.41900
H105        H  0.37573465  0.75045705  0.86324935     0.45300
H106        H  0.40721284  0.69628849  0.02009328     0.36800
C107        C  0.31360122  0.59325259  0.32278637    -0.27500
C108        C  0.29922050  0.56432925  0.28914168     0.02100
C109        C  0.29962814  0.56860825  0.23114382     0.30200
C110        C  0.31414534  0.60171642  0.20735422    -0.19300
C111        C  0.32648442  0.63123274  0.24096200    -0.28700
C112        C  0.32725422  0.62628143  0.29960290     0.44300
C113        C  0.28271429  0.52992346  0.31612127     0.05400
O114        O  0.28566485  0.54051940  0.19734578    -0.57200
H115        H  0.31563297  0.60367078  0.16241056     0.18400
O116        O  0.33947225  0.65352294  0.33515627    -0.63900
H117        H  0.31335046  0.59015679  0.36772218     0.16800
C118        C  0.30201591  0.51979454  0.34785251     0.29100
C119        C  0.28525942  0.49014641  0.38179627    -0.24800
C120        C  0.24918816  0.47052350  0.38507517    -0.24100
C121        C  0.23004653  0.47930001  0.34984606     0.40500
C122        C  0.24688211  0.50897507  0.31590159    -0.26500
O123        O  0.33723677  0.53911690  0.34656896    -0.58400
H124        H  0.30054584  0.48348995  0.40755209     0.16200
O125        O  0.19484745  0.46019204  0.35036106    -0.59800
H126        H  0.23182395  0.51658769  0.29146417     0.14600
H127        H  0.36130656  0.65636080  0.34891792     0.46500
H128        H  0.34319554  0.55303333  0.38080210     0.41900
H129        H  0.18932980  0.44259513  0.32142921     0.45300
H130        H  0.30503450  0.53711836  0.18623758     0.36800
C131        C  0.31207227  0.59865547  0.69027006    -0.27500
C132        C  0.28167507  0.57211534  0.71499772     0.02100
C133        C  0.26718746  0.57945954  0.76165849     0.30200
C134        C  0.28334887  0.61283239  0.78294240    -0.19300
C135        C  0.31546391  0.63941308  0.76122787    -0.28700
C136        C  0.32875025  0.63194618  0.71187586     0.44300
C137        C  0.26502999  0.53746383  0.68956333     0.05400
O138        O  0.23804762  0.55381838  0.78824834    -0.57200
H139        H  0.27099398  0.61781602  0.81803938     0.18400
O140        O  0.35561994  0.65734312  0.68057915    -0.63900
H141        H  0.32253055  0.59380923  0.65246552     0.16800
C142        C  0.23096593  0.52147628  0.67147876     0.29100
C143        C  0.21735344  0.49077494  0.64177900    -0.24800
C144        C  0.23715794  0.47543766  0.62940927    -0.24100
C145        C  0.27098345  0.49100270  0.64881007     0.40500
C146        C  0.28454869  0.52163456  0.67865768    -0.26500
O147        O  0.21178085  0.53712928  0.67848928    -0.58400
H148        H  0.19151421  0.47962069  0.62663750     0.16200
O149        O  0.29148866  0.47725066  0.63729758    -0.59800
H150        H  0.31084376  0.53364494  0.69204197     0.14600
H151        H  0.37328373  0.65042765  0.67752681     0.46500
H152        H  0.19217959  0.52152970  0.70377982     0.41900
H153        H  0.30430199  0.48888687  0.60213480     0.45300
H154        H  0.22053239  0.56085380  0.78545434     0.36800
C155        C  0.24882958  0.28557242  0.53629130    -0.27500
C156        C  0.27416223  0.29285146  0.49458753     0.02100
C157        C  0.28196890  0.31906062  0.45463466     0.30200
C158        C  0.26510567  0.33794936  0.45751712    -0.19300
C159        C  0.24075549  0.33156205  0.50052130    -0.28700
C160        C  0.23227899  0.30477563  0.53959724     0.44300
C161        C  0.29356492  0.27429199  0.49480589     0.05400
O162        O  0.30683645  0.32719334  0.41369099    -0.57200
H163        H  0.27203611  0.35852052  0.42714551     0.18400
O164        O  0.20804026  0.29725388  0.58136612    -0.63900
H165        H  0.24211342  0.26512542  0.56678062     0.16800
C166        C  0.31084963  0.27387011  0.54267678     0.29100
C167        C  0.33022850  0.25748759  0.54171438    -0.24800
C168        C  0.33311837  0.24165148  0.49320648    -0.24100
C169        C  0.31568607  0.24190965  0.44531660     0.40500
C170        C  0.29585913  0.25788491  0.44654395    -0.26500
O171        O  0.31055821  0.29113343  0.58954970    -0.58400
H172        H  0.34380091  0.25799308  0.57870892     0.16200
O173        O  0.31711345  0.22588864  0.39761959    -0.59800
H174        H  0.28238339  0.25763852  0.40957594     0.14600
H175        H  0.18567246  0.28174225  0.56430915     0.46500
H176        H  0.29489558  0.27300135  0.61686968     0.41900
H177        H  0.33496246  0.24450138  0.37317562     0.45300
H178        H  0.32883133  0.34340807  0.43114434     0.36800
C179        C  0.29216831  0.76591973  0.34584719    -0.27500
C180        C  0.27219930  0.73980450  0.30873785     0.02100
C181        C  0.23731188  0.72965206  0.30365600     0.30200
C182        C  0.22256425  0.74461124  0.33706933    -0.19300
C183        C  0.24217603  0.76975263  0.37611312    -0.28700
C184        C  0.27746071  0.78068243  0.37963098     0.44300
C185        C  0.28720324  0.72101750  0.28019276     0.05400
O186        O  0.21720473  0.70440893  0.26725956    -0.57200
H187        H  0.19548032  0.73580210  0.33343972     0.18400
O188        O  0.29771054  0.80505549  0.41709174    -0.63900
H189        H  0.31896829  0.77378170  0.35058111     0.16800
C190        C  0.31657541  0.73799670  0.24491873     0.29100
C191        C  0.33179823  0.71992859  0.22284127    -0.24800
C192        C  0.31963286  0.68505124  0.23777003    -0.24100
C193        C  0.28786874  0.66750325  0.26921078     0.40500
C194        C  0.27272539  0.68573996  0.29081557    -0.26500
O195        O  0.33112196  0.77247537  0.23282532    -0.58400
H196        H  0.35467665  0.73387160  0.19627039     0.16200
O197        O  0.27064665  0.63257620  0.27874963    -0.59800
H198        H  0.24954816  0.67213208  0.31685499     0.14600
H199        H  0.29653659  0.79186569  0.45121466     0.46500
H200        H  0.32018716  0.77371258  0.19815356     0.41900
H201        H  0.25010584  0.62305649  0.25546372     0.45300
H202        H  0.21840777  0.71681252  0.23222872     0.36800
C203        C  0.25833411  0.76288285  0.69646315    -0.27500
C204        C  0.24575640  0.72735998  0.69386304     0.02100
C205        C  0.21825031  0.70715544  0.65925285     0.30200
C206        C  0.20513140  0.72280857  0.62503364    -0.19300
C207        C  0.21956661  0.75876157  0.62387800    -0.28700
C208        C  0.24535411  0.77866078  0.66193756     0.44300
C209        C  0.26527417  0.71271225  0.71914440     0.05400
O210        O  0.20495553  0.67221200  0.65722428    -0.57200
H211        H  0.18484549  0.70683722  0.59706187     0.18400
O212        O  0.25965688  0.81372294  0.66323908    -0.63900
H213        H  0.27965517  0.77868958  0.72286179     0.16800
C214        C  0.28647035  0.70567912  0.68489390     0.29100
C215        C  0.30641552  0.69354894  0.70827168    -0.24800
C216        C  0.30660658  0.68847053  0.76657938    -0.24100
C217        C  0.28228498  0.69236763  0.80027826     0.40500
C218        C  0.26274234  0.70538598  0.77645795    -0.26500
O219        O  0.28890141  0.71195076  0.62837501    -0.58400
H220        H  0.32312497  0.68944725  0.68034554     0.16200
O221        O  0.27495678  0.68081007  0.85476780    -0.59800
H222        H  0.24492159  0.70898881  0.80265629     0.14600
H223        H  0.24481745  0.81760308  0.68985335     0.46500
H224        H  0.27554489  0.68896894  0.61143946     0.41900
H225        H  0.27895587  0.70090013  0.87726892     0.45300
H226        H  0.21241731  0.66803953  0.62027338     0.36800
C227        C  0.24803489  0.96230540  0.52935553    -0.27500
C228        C  0.27091693  0.98145385  0.48507073     0.02100
C229        C  0.27635554  0.96378899  0.44126119     0.30200
C230        C  0.25928265  0.92766465  0.44255991    -0.19300
C231        C  0.23675469  0.90848442  0.48728980    -0.28700
C232        C  0.23100778  0.92622897  0.53071265     0.44300
C233        C  0.29071342  0.01972728  0.48745258     0.05400
O234        O  0.30011643  0.98164078  0.39910598    -0.57200
H235        H  0.26452242  0.91468998  0.40910340     0.18400
O236        O  0.20945569  0.90869971  0.57541045    -0.63900
H237        H  0.24363576  0.97546258  0.56349349     0.16800
C238        C  0.29097277  0.04077420  0.44344910     0.29100
C239        C  0.31105511  0.07674520  0.44651192    -0.24800
C240        C  0.33065638  0.09242168  0.49359413    -0.24100
C241        C  0.32945223  0.07130099  0.53832054     0.40500
C242        C  0.30978701  0.03540717  0.53485311    -0.26500
O243        O  0.27161319  0.02649028  0.39739767    -0.58400
H244        H  0.31125448  0.09240427  0.41185767     0.16200
O245        O  0.34844320  0.08532322  0.58480330    -0.59000
H246        H  0.30991569  0.01966897  0.56910486     0.14600
H247        H  0.18711519  0.90656654  0.56648825     0.46500
H248        H  0.24978464  0.02620574  0.40526858     0.41900
H249        H  0.33277478  0.08778611  0.61166570     0.45300
H250        H  0.28665315  0.97749798  0.36496649     0.36800
C251        C  0.59300724  0.32154293  0.28492284    -0.27500
C252        C  0.57199350  0.28585669  0.28158557     0.02100
C253        C  0.58338512  0.26763905  0.24845577     0.30200
C254        C  0.61661857  0.28488173  0.22377754    -0.19300
C255        C  0.64002231  0.32009500  0.23391269    -0.28700
C256        C  0.62617144  0.33886509  0.26099865     0.44300
C257        C  0.53938789  0.26866337  0.31571588     0.05400
O258        O  0.56292776  0.23283605  0.24173994    -0.57200
H259        H  0.62508913  0.27007580  0.19965904     0.18400
O260        O  0.64417515  0.37413186  0.26415108    -0.63900
H261        H  0.58372247  0.33632765  0.30714505     0.16800
C262        C  0.53980184  0.27657187  0.37270927     0.29100
C263        C  0.50916190  0.26347615  0.40400206    -0.24800
C264        C  0.47757681  0.24111319  0.38038184    -0.24100
C265        C  0.47692557  0.23195147  0.32406775     0.40500
C266        C  0.50773301  0.24597144  0.29189437    -0.26500
O267        O  0.57021985  0.29706888  0.39845783    -0.58400
H268        H  0.51023846  0.27009804  0.44764044     0.16200
O269        O  0.44640012  0.20991401  0.29990145    -0.59800
H270        H  0.50680369  0.23968238  0.24816075     0.14600
H271        H  0.63077826  0.38248231  0.24389397     0.46500
H272        H  0.57762164  0.28107721  0.41219591     0.41900
H273        H  0.43768209  0.22478331  0.28597713     0.45300
H274        H  0.56879952  0.22206229  0.27246758     0.36800
C275        C  0.69706811  0.34342922  0.93436416    -0.27500
C276        C  0.66699084  0.33150732  0.96705113     0.02100
C277        C  0.63572440  0.32019292  0.94056448     0.30200
C278        C  0.63466621  0.31948838  0.88213566    -0.19300
C279        C  0.66457202  0.32949098  0.84823892    -0.28700
C280        C  0.69627702  0.34305730  0.87598705     0.44300
C281        C  0.66888773  0.33166861  0.02875722     0.05400
O282        O  0.60599720  0.31008817  0.97138914    -0.57200
H283        H  0.61017467  0.31172484  0.86405857     0.18400
O284        O  0.72690466  0.35691366  0.84621295    -0.63900
H285        H  0.72155034  0.35357277  0.95428297     0.16800
C286        C  0.68130400  0.31273065  0.05622956     0.29100
C287        C  0.68361123  0.31365636  0.11440390    -0.24800
C288        C  0.67556762  0.33501483  0.14697271    -0.24100
C289        C  0.66141181  0.35260864  0.11853266     0.40500
C290        C  0.65866430  0.35116007  0.06033797    -0.26500
O291        O  0.69003319  0.29208867  0.02662993    -0.58400
H292        H  0.69134413  0.29690314  0.13325206     0.16200
O293        O  0.65130005  0.37247437  0.14701471    -0.59800
H294        H  0.64883400  0.36575036  0.03969524     0.14600
H295        H  0.73703089  0.34247669  0.85551323     0.46500
H296        H  0.71547578  0.30533277  0.02294543     0.41900
H297        H  0.62587461  0.36001102  0.14523542     0.45300
H298        H  0.59790359  0.28602118  0.98351330     0.36800
C299        C  0.56987631  0.26030169  0.74982233    -0.27500
C300        C  0.56006532  0.27778849  0.71287910     0.02100
C301        C  0.58339925  0.31261147  0.69998148     0.30200
C302        C  0.61590898  0.32927048  0.72317132    -0.19300
C303        C  0.62642544  0.31222232  0.76093124    -0.28700
C304        C  0.60257755  0.27683463  0.77298617     0.44300
C305        C  0.52664829  0.25917127  0.68444229     0.05400
O306        O  0.57530234  0.33039976  0.66254610    -0.57200
H307        H  0.63324973  0.35513174  0.70793945     0.18400
O308        O  0.61108179  0.25805839  0.80753616    -0.63900
H309        H  0.55227914  0.23339769  0.76010380     0.16800
C310        C  0.51821131  0.22982809  0.65267313     0.29100
C311        C  0.48875297  0.21512629  0.62052658    -0.24800
C312        C  0.46722361  0.22927256  0.61899865    -0.24100
C313        C  0.47496706  0.25787412  0.65258534     0.40500
C314        C  0.50429345  0.27236968  0.68516522    -0.26500
O315        O  0.54006397  0.21701106  0.64918189    -0.58400
H316        H  0.48361277  0.19339769  0.59480137     0.16200
O317        O  0.45475388  0.27260760  0.65266781    -0.59800
H318        H  0.51023213  0.29476470  0.70971653     0.14600
H319        H  0.61458651  0.24244066  0.78271301     0.46500
H320        H  0.52890218  0.19560634  0.67244482     0.41900
H321        H  0.46563826  0.29154264  0.62431308     0.45300
H322        H  0.58135875  0.32516169  0.62525533     0.36800
C323        C  0.50464301  0.76862999  0.29621496    -0.27500
C324        C  0.48045455  0.73338440  0.30121145     0.02100
C325        C  0.48725227  0.71210885  0.33525108     0.30200
C326        C  0.51703486  0.72646796  0.36618582    -0.19300
C327        C  0.54014035  0.76212568  0.36441602    -0.28700
C328        C  0.53447830  0.78307868  0.32725072     0.44300
C329        C  0.44662328  0.71949754  0.27579059     0.05400
O330        O  0.46387386  0.67758653  0.34130616    -0.57200
H331        H  0.52086574  0.70986451  0.39431164     0.18400
O332        O  0.55675320  0.81794424  0.32343074    -0.63900
H333        H  0.49970639  0.78517527  0.26980131     0.16800
C334        C  0.42442054  0.73129070  0.29266362     0.29100
C335        C  0.39104386  0.71558176  0.27315477    -0.24800
C336        C  0.37879432  0.68797831  0.23539753    -0.24100
C337        C  0.40173830  0.67627202  0.21915983     0.40500
C338        C  0.43509278  0.69206022  0.23917358    -0.26500
O339        O  0.43454269  0.75715395  0.33061909    -0.58400
H340        H  0.37457791  0.72414777  0.29115178     0.16200
O341        O  0.39118996  0.64838148  0.18528072    -0.59800
H342        H  0.45185051  0.68232963  0.22687113     0.14600
H343        H  0.57168662  0.82144497  0.29004346     0.46500
H344        H  0.42967602  0.74553872  0.36778230     0.41900
H345        H  0.40519654  0.65738122  0.15014306     0.45300
H346        H  0.44833460  0.67570106  0.37288116     0.36800
C347        C  0.50002611  0.75840420  0.70293059    -0.27500
C348        C  0.46839776  0.75145178  0.68175451     0.02100
C349        C  0.46694179  0.75862601  0.62485924     0.30200
C350        C  0.49648149  0.77236032  0.59036793    -0.19300
C351        C  0.52795824  0.77858430  0.61095753    -0.28700
C352        C  0.52965337  0.77181651  0.66801752     0.44300
C353        C  0.43660864  0.73593172  0.71796473     0.05400
O354        O  0.43644673  0.75130146  0.60195015    -0.57200
H355        H  0.49435604  0.77704023  0.54665021     0.18400
O356        O  0.55986122  0.77759513  0.68997415    -0.63900
H357        H  0.50174154  0.75332708  0.74661112     0.16800
C358        C  0.42548220  0.70524112  0.74884098     0.29100
C359        C  0.39276910  0.68846050  0.77509005    -0.24800
C360        C  0.36935468  0.70029952  0.76797886    -0.24100
C361        C  0.38285520  0.73384343  0.74366456     0.40500
C362        C  0.41576642  0.75072540  0.71828848    -0.26500
O363        O  0.44525141  0.69005017  0.75034389    -0.58400
H364        H  0.38432747  0.66407881  0.79642556     0.16200
O365        O  0.36448550  0.75058417  0.74379864    -0.59800
H366        H  0.42478889  0.77538304  0.69745760     0.14600
H367        H  0.57229066  0.80229319  0.69972691     0.46500
H368        H  0.43846655  0.67478454  0.71764059     0.41900
H369        H  0.37784185  0.77172180  0.76565856     0.45300
H370        H  0.42513072  0.72662620  0.59222446     0.36800
C371        C  0.74685388  0.30995400  0.23834666    -0.27500
C372        C  0.73048664  0.28341651  0.27834235     0.02100
C373        C  0.69700029  0.27362526  0.29725694     0.30200
C374        C  0.68030527  0.29016154  0.27603854    -0.19300
C375        C  0.69574766  0.31606441  0.23370947    -0.28700
C376        C  0.73017610  0.32641302  0.21659380     0.44300
C377        C  0.74947970  0.26809397  0.30388739     0.05400
O378        O  0.68126747  0.24954494  0.33958686    -0.57200
H379        H  0.65581143  0.28332854  0.29550459     0.18400
O380        O  0.74773564  0.35255915  0.17792642    -0.63900
H381        H  0.77296824  0.31829815  0.22428485     0.16800
C382        C  0.73624320  0.23226664  0.30449374     0.29100
C383        C  0.75158780  0.21798206  0.33681748    -0.24800
C384        C  0.78066727  0.23909822  0.36801284    -0.24100
C385        C  0.79566989  0.27519626  0.36312356     0.40500
C386        C  0.78003709  0.28937159  0.33132090    -0.26500
O387        O  0.70763044  0.21090339  0.27517070    -0.58400
H388        H  0.73995279  0.19023246  0.33902188     0.16200
O389        O  0.82476990  0.29690063  0.39111751    -0.59800
H390        H  0.79089043  0.31704354  0.33042628     0.14600
H391        H  0.76551621  0.37211338  0.19901596     0.46500
H392        H  0.71586772  0.21342931  0.23571036     0.41900
H393        H  0.81644603  0.30188723  0.42656381     0.45300
H394        H  0.66269710  0.22887420  0.32175476     0.36800
C395        C  0.69488426  0.28803965  0.67155886    -0.27500
C396        C  0.70692035  0.27053599  0.70372889     0.02100
C397        C  0.70361673  0.27055865  0.76216921     0.30200
C398        C  0.68925342  0.28863267  0.78757515    -0.19300
C399        C  0.67908694  0.30846405  0.75576530    -0.28700
C400        C  0.68101876  0.30659211  0.69658413     0.44300
C401        C  0.72340263  0.25302717  0.67526224     0.05400
O402        O  0.71407095  0.25270194  0.79498469    -0.57200
H403        H  0.68576117  0.28631275  0.83241774     0.18400
O404        O  0.66940661  0.32299564  0.66266208    -0.63900
H405        H  0.69694921  0.28802398  0.62641594     0.16800
C406        C  0.70587864  0.22797808  0.63483317     0.29100
C407        C  0.72307605  0.21466485  0.60363658    -0.24800
C408        C  0.75808485  0.22646872  0.61112689    -0.24100
C409        C  0.77531096  0.25069314  0.65302208     0.40500
C410        C  0.75786299  0.26350453  0.68502218    -0.26500
O411        O  0.67182308  0.21622983  0.62580783    -0.58400
H412        H  0.70918967  0.19590998  0.57202771     0.16200
O413        O  0.80916344  0.26207413  0.66305238    -0.59800
H414        H  0.77169892  0.28273878  0.71603073     0.14600
H415        H  0.68988254  0.34105458  0.64159257     0.46500
H416        H  0.67148118  0.22735085  0.59018920     0.41900
H417        H  0.82232897  0.28413846  0.64175645     0.45300
H418        H  0.69458536  0.22863148  0.79608338     0.36800
C419        C  0.96888127  0.24773383  0.46762348    -0.27500
C420        C  0.98632634  0.27120681  0.50991232     0.02100
C421        C  0.96724491  0.27741843  0.55077724     0.30200
C422        C  0.93135263  0.26066837  0.54855702    -0.19300
C423        C  0.91385844  0.23771870  0.50565641    -0.28700
C424        C  0.93294932  0.23089963  0.46543493     0.44300
C425        C  0.02448042  0.29092264  0.50896521     0.05400
O426        O  0.98365798  0.30158496  0.59080213    -0.57200
H427        H  0.91727465  0.26656033  0.57955770     0.18400
O428        O  0.91688618  0.20818800  0.42341194    -0.63900
H429        H  0.98324717  0.24270418  0.43590305     0.16800
C430        C  0.04309376  0.28949949  0.55422438     0.29100
C431        C  0.07894878  0.31067906  0.55416980    -0.24800
C432        C  0.09693794  0.33304130  0.50876050    -0.24100
C433        C  0.07827213  0.33345995  0.46254970     0.40500
C434        C  0.04241386  0.31261357  0.46305814    -0.26500
O435        O  0.02645802  0.26752699  0.59874765    -0.58400
H436        H  0.09270180  0.30952018  0.58976929     0.16200
O437        O  0.09457260  0.35511424  0.41753333    -0.59800
H438        H  0.02844020  0.31400288  0.42794755     0.14600
H439        H  0.90862765  0.18505460  0.44035379     0.46500
H440        H  0.02545564  0.24567480  0.58875195     0.41900
H441        H  0.09910308  0.34119133  0.39040611     0.45300
H442        H  0.97995111  0.28825767  0.62594721     0.36800
C443        C  0.73290153  0.03563926  0.54997971    -0.27500
C444        C  0.73904806  0.01912279  0.50541732     0.02100
C445        C  0.76274535  0.03933413  0.46235486     0.30200
C446        C  0.77846115  0.07526483  0.46300771    -0.19300
C447        C  0.77148040  0.09170592  0.50680392    -0.28700
C448        C  0.74916959  0.07155796  0.55128291     0.44300
C449        C  0.71837358  0.98102306  0.50210034     0.05400
O450        O  0.77008511  0.02422825  0.41871116    -0.57200
H451        H  0.79582674  0.09029760  0.42871841     0.18400
O452        O  0.74115025  0.08649217  0.59433486    -0.63900
H453        H  0.71427156  0.02063316  0.58288106     0.16800
C454        C  0.71436754  0.95956430  0.54815757     0.29100
C455        C  0.69231988  0.92390755  0.54532346    -0.24800
C456        C  0.67388749  0.90906314  0.49706641    -0.24100
C457        C  0.67824114  0.93049081  0.45070905     0.40500
C458        C  0.70033478  0.96607186  0.45350323    -0.26500
O459        O  0.73258191  0.97315616  0.59554212    -0.58400
H460        H  0.68961963  0.90785068  0.58114839     0.16200
O461        O  0.66053496  0.91713350  0.40282941    -0.59800
H462        H  0.70249732  0.98216955  0.41807113     0.14600
H463        H  0.75674011  0.08874586  0.62456978     0.46500
H464        H  0.71533509  0.97039985  0.62472755     0.41900
H465        H  0.63850852  0.91676972  0.40876286     0.45300
H466        H  0.78696911  0.01838517  0.43315984     0.36800
C467        C  0.03274610  0.72031265  0.53457305    -0.27500
C468        C  0.01676423  0.72576257  0.48947878     0.02100
C469        C  0.03713928  0.74831098  0.44556682     0.30200
C470        C  0.07306708  0.76427201  0.44648092    -0.19300
C471        C  0.08911412  0.75843622  0.49131285    -0.28700
C472        C  0.06853512  0.73657172  0.53600021     0.44300
C473        C  0.97877177  0.70739732  0.48897348     0.05400
O474        O  0.02216800  0.75598110  0.40296951    -0.57200
H475        H  0.08838201  0.78149092  0.41230551     0.18400
O476        O  0.08300059  0.72996219  0.58054949    -0.63900
H477        H  0.01733459  0.70301735  0.56863820     0.16800
C478        C  0.96075219  0.68446631  0.44615389     0.29100
C479        C  0.92478704  0.66630930  0.44776997    -0.24800
C480        C  0.90625690  0.66968958  0.49284897    -0.24100
C481        C  0.92436338  0.69240965  0.53597871     0.40500
C482        C  0.96030927  0.71111223  0.53368319    -0.26500
O483        O  0.97802604  0.67852538  0.40381885    -0.58400
H484        H  0.91138827  0.64845047  0.41480223     0.16200
O485        O  0.90727176  0.69612847  0.58107303    -0.59800
H486        H  0.97388172  0.72833220  0.56727836     0.14600
H487        H  0.08545934  0.74692904  0.60902699     0.46500
H488        H  0.98258559  0.66069494  0.41890738     0.41900
H489        H  0.90257254  0.71455935  0.56985925     0.45300
H490        H  0.02468564  0.74424930  0.36980592     0.36800
C491        C  0.74005944  0.43547842  0.23106546    -0.27500
C492        C  0.73794688  0.43718743  0.28920002     0.02100
C493        C  0.72008051  0.40674643  0.32108418     0.30200
C494        C  0.70274727  0.37517478  0.29475413    -0.19300
C495        C  0.70140294  0.37281986  0.23578167    -0.28700
C496        C  0.72246104  0.40368291  0.20401470     0.44300
C497        C  0.75220017  0.47057820  0.31712738     0.05400
O498        O  0.71782238  0.40775893  0.37817499    -0.57200
H499        H  0.68828934  0.35225544  0.32080495     0.18400
O500        O  0.72814350  0.40313876  0.14761356    -0.63900
H501        H  0.75514595  0.45894476  0.20646966     0.16800
C502        C  0.78498203  0.48640982  0.33997192     0.29100
C503        C  0.79561040  0.51509921  0.37399683    -0.24800
C504        C  0.77362456  0.52805972  0.38623691    -0.24100
C505        C  0.74095449  0.51234300  0.36232621     0.40500
C506        C  0.73063065  0.48400173  0.32781291    -0.26500
O507        O  0.80643737  0.47355542  0.33025096    -0.58400
H508        H  0.82077397  0.52667549  0.39195145     0.16200
O509        O  0.71831966  0.52352834  0.37406771    -0.59800
H510        H  0.70503993  0.47146366  0.31126530     0.14600
H511        H  0.72073594  0.41825699  0.13008290     0.46500
H512        H  0.80128612  0.45678694  0.36124225     0.41900
H513        H  0.70428479  0.50939257  0.40678589     0.45300
H514        H  0.73746094  0.40597866  0.39177312     0.36800
C515        C  0.73281972  0.41973209  0.71968691    -0.27500
C516        C  0.71704673  0.43907595  0.73112975     0.02100
C517        C  0.68718558  0.42449988  0.76551328     0.30200
C518        C  0.67210120  0.39019500  0.78389201    -0.19300
C519        C  0.68519699  0.36884850  0.76650793    -0.28700
C520        C  0.71786312  0.38533424  0.73785354     0.44300
C521        C  0.73069989  0.47324071  0.70326481     0.05400
O522        O  0.67194021  0.44322566  0.78012210    -0.57200
H523        H  0.64859950  0.37942105  0.80923245     0.18400
O524        O  0.73682166  0.36937362  0.73116511    -0.63900
H525        H  0.75670279  0.43112185  0.69526216     0.16800
C526        C  0.76587448  0.49834697  0.70410319     0.29100
C527        C  0.77925868  0.52737923  0.66863676    -0.24800
C528        C  0.75790562  0.53206252  0.63228883    -0.24100
C529        C  0.72223983  0.50826144  0.63480772     0.40500
C530        C  0.70899993  0.47908934  0.66978844    -0.26500
O531        O  0.78763128  0.49402569  0.73773578    -0.58400
H532        H  0.80664567  0.54555772  0.66808313     0.16200
O533        O  0.70030747  0.51190682  0.60058783    -0.59800
H534        H  0.68191179  0.45999792  0.66838088     0.14600
H535        H  0.74307190  0.37110907  0.69079919     0.46500
H536        H  0.78558569  0.50292919  0.77454904     0.41900
H537        H  0.69261112  0.52570884  0.62207469     0.45300
H538        H  0.68571829  0.45805544  0.81088632     0.36800
C539        C  0.71693735  0.75465627  0.46337542    -0.27500
C540        C  0.70602783  0.72517888  0.49718203     0.02100
C541        C  0.67584056  0.71274783  0.53058478     0.30200
C542        C  0.65679168  0.72941159  0.52935195    -0.19300
C543        C  0.66731232  0.75865017  0.49503564    -0.28700
C544        C  0.69799256  0.77154085  0.46238012     0.44300
C545        C  0.72583236  0.70709291  0.49700305     0.05400
O546        O  0.66447525  0.68399506  0.56408712    -0.57200
H547        H  0.63344207  0.71910276  0.55499102     0.18400
O548        O  0.70968410  0.80046377  0.42919210    -0.63900
H549        H  0.74035553  0.76473243  0.43796347     0.16800
C550        C  0.73076441  0.69305744  0.44770859     0.29100
C551        C  0.74733269  0.67382732  0.44931251    -0.24800
C552        C  0.75963457  0.66864216  0.49961900    -0.24100
C553        C  0.75549681  0.68362022  0.54868176     0.40500
C554        C  0.73870525  0.70260647  0.54703989    -0.26500
O555        O  0.71791172  0.69651560  0.39836028    -0.58400
H556        H  0.75002894  0.66247439  0.41115094     0.16200
O557        O  0.76788929  0.68008963  0.59845643    -0.59800
H558        H  0.73543765  0.71365165  0.58515419     0.14600
H559        H  0.72451499  0.81996447  0.45336424     0.46500
H560        H  0.73794733  0.71501822  0.37707410     0.41900
H561        H  0.74816408  0.66011886  0.61787094     0.45300
H562        H  0.64922842  0.66437227  0.54047584     0.36800
loop_ 
_geom_bond_atom_site_label_1 
_geom_bond_atom_site_label_2 
_geom_bond_distance 
_geom_bond_site_symmetry_2 
_ccdc_geom_bond_type 
In1           O3   2.248       .  S
In1           O4   2.241       .  S
In1          O12   2.245       .  S
In1           O6   2.254       .  S
In1           O8   2.242       .  S
In1           O9   2.254       .  S
In1          O10   2.246       .  S
In1          O13   2.238       .  S
C2            O8   1.262       .  A
C2           O10   1.261       .  A
C2          C504   1.482       .  S
O3           C11   1.261       .  A
O4           C11   1.260       .  A
C5           O12   1.259       .  A
C5            O6   1.261       .  A
C5          C552   1.483       .  S
C7            O9   1.260       .  A
C7           O13   1.259       .  A
C7          C528   1.481       .  S
C11         C480   1.478       .  S
In14         O16   2.249       .  S
In14         O17   2.253       .  S
In14         O25   2.248       .  S
In14         O19   2.249       .  S
In14         O21   2.249       .  S
In14         O22   2.246       .  S
In14         O23   2.257       .  S
In14         O26   2.258       .  S
C15          O21   1.261       .  A
C15          O23   1.262       .  A
C15         C408   1.486       .  S
O16          C24   1.261       .  A
O17          C24   1.261       .  A
C18          O25   1.260       .  A
C18          O19   1.260       .  A
C18         C447   1.480       .  S
C20          O22   1.259       .  A
C20          O26   1.260       .  A
C20         C384   1.484       .  S
C24         C423   1.483       .  S
In27         O29   2.254       .  S
In27         O30   2.244       .  S
In27         O38   2.247       .  S
In27         O32   2.233       .  S
In27         O34   2.233       .  S
In27         O35   2.270       .  S
In27         O36   2.239       .  S
In27         O39   2.237       .  S
C28          O34   1.260       .  A
C28          O36   1.263       .  A
C28         C327   1.476       .  S
O29          C37   1.259       .  A
O30          C37   1.259       .  A
C31          O38   1.261       .  A
C31          O32   1.258       .  A
C31         C456   1.477       .  S
C33          O35   1.262       .  A
C33          O39   1.258       .  A
C33         C351   1.484       .  S
C37         C543   1.481       .  S
C40         C279   1.564       .  S
C40         C303   1.571       .  S
C40         C399   1.564       .  S
C40         C519   1.565       .  S
C41         C255   1.570       .  S
C41         C288   1.562       .  S
C41         C375   1.569       .  S
C41         C495   1.559       .  S
In42         O44   2.254       .  S
In42         O45   2.260       .  S
In42         O53   2.232       .  S
In42         O47   2.265       .  S
In42         O49   2.263       .  S
In42         O50   2.261       .  S
In42         O51   2.237       .  S
In42         O54   2.235       .  S
C43          O49   1.263       .  A
C43          O51   1.260       .  A
C43         C183   1.486       .  S
O44          C52   1.259       .  A
O45          C52   1.260       .  A
C46          O53   1.257       .  A
C46          O47   1.262       .  A
C46         C471   1.481       .  S
C48          O50   1.263       .  A
C48          O54   1.260       .  A
C48         C207   1.484       .  S
C52         C231   1.487       .  S
In55         O57   2.254       .  S
In55         O58   2.256       .  S
In55         O66   2.256       .  S
In55         O60   2.249       .  S
In55         O62   2.251       .  S
In55         O63   2.266       .  S
In55         O64   2.245       .  S
In55         O67   2.237       .  S
C56          O62   1.263       .  A
C56          O64   1.264       .  A
C56         C312   1.487       .  S
O57          C65   1.260       .  A
O58          C65   1.259       .  A
C59          O66   1.259       .  A
C59          O60   1.259       .  A
C59         C168   1.480       .  S
C61          O63   1.260       .  A
C61          O67   1.258       .  A
C61         C264   1.475       .  S
C65         C240   1.485       .  S
In68         O70   2.240       .  S
In68         O71   2.260       .  S
In68         O79   2.253       .  S
In68         O73   2.236       .  S
In68         O75   2.234       .  S
In68         O76   2.252       .  S
In68         O77   2.237       .  S
In68         O80   2.259       .  S
C69          O75   1.261       .  A
C69          O77   1.262       .  A
C69         C120   1.477       .  S
O70          C78   1.260       .  A
O71          C78   1.263       .  A
C72          O79   1.262       .  A
C72          O73   1.258       .  A
C72         C159   1.476       .  S
C74          O76   1.259       .  A
C74          O80   1.259       .  A
C74         C144   1.485       .  S
C78         C432   1.486       .  S
C81          C96   1.564       .  S
C81         C135   1.569       .  S
C81         C216   1.562       .  S
C81         C360   1.563       .  S
C82          C87   1.565       .  S
C82         C111   1.560       .  S
C82         C192   1.566       .  S
C82         C336   1.565       .  S
C83          C84   1.399       .  A
C83          C88   1.405       .  A
C83          H93   1.084       .  S
C84          C89   1.479   1_554  S
C84          C85   1.400       .  A
C85          C86   1.396       .  A
C85          O90   1.372       .  S
C86          C87   1.419       .  A
C86          H91   1.079       .  S
C87          C88   1.423       .  A
C88          O92   1.373       .  S
C89          C94   1.401       .  A
C89          C98   1.397       .  A
O90         H106   0.992       .  S
O92         H103   0.992       .  S
C94          C95   1.400       .  A
C94          O99   1.372       .  S
C95          C96   1.419       .  A
C95         H100   1.079       .  S
C96          C97   1.422       .  A
C97          C98   1.401       .  A
C97         O101   1.370       .  S
C98         H102   1.084       .  S
O99         H104   0.992       .  S
O101        H105   0.992       .  S
C107        C108   1.396       .  A
C107        C112   1.396       .  A
C107        H117   1.084       .  S
C108        C113   1.474       .  S
C108        C109   1.400       .  A
C109        C110   1.401       .  A
C109        O114   1.372       .  S
C110        C111   1.417       .  A
C110        H115   1.078       .  S
C111        C112   1.426       .  A
C112        O116   1.372       .  S
C113        C118   1.405       .  A
C113        C122   1.401       .  A
O114        H130   0.991       .  S
O116        H127   0.992       .  S
C118        C119   1.398       .  A
C118        O123   1.372       .  S
C119        C120   1.405       .  A
C119        H124   1.083       .  S
C120        C121   1.411       .  A
C121        C122   1.399       .  A
C121        O125   1.371       .  S
C122        H126   1.084       .  S
O123        H128   0.991       .  S
O125        H129   0.992       .  S
C131        C132   1.399       .  A
C131        C136   1.402       .  A
C131        H141   1.084       .  S
C132        C137   1.489       .  S
C132        C133   1.404       .  A
C133        C134   1.402       .  A
C133        O138   1.373       .  S
C134        C135   1.417       .  A
C134        H139   1.083       .  S
C135        C136   1.429       .  A
C136        O140   1.373       .  S
C137        C142   1.409       .  A
C137        C146   1.405       .  A
O138        H154   0.992       .  S
O140        H151   0.992       .  S
C142        C143   1.402       .  A
C142        O147   1.372       .  S
C143        C144   1.405       .  A
C143        H148   1.083       .  S
C144        C145   1.412       .  A
C145        C146   1.402       .  A
C145        O149   1.372       .  S
C146        H150   1.084       .  S
O147        H152   0.992       .  S
O149        H153   0.992       .  S
C155        C156   1.405       .  A
C155        C160   1.400       .  A
C155        H165   1.083       .  S
C156        C161   1.484       .  S
C156        C157   1.409       .  A
C157        C158   1.399       .  A
C157        O162   1.372       .  S
C158        C159   1.405       .  A
C158        H163   1.084       .  S
C159        C160   1.408       .  A
C160        O164   1.371       .  S
C161        C166   1.408       .  A
C161        C170   1.404       .  A
O162        H178   0.992       .  S
O164        H175   0.992       .  S
C166        C167   1.399       .  A
C166        O171   1.372       .  S
C167        C168   1.404       .  A
C167        H172   1.084       .  S
C168        C169   1.410       .  A
C169        C170   1.402       .  A
C169        O173   1.372       .  S
C170        H174   1.084       .  S
O171        H176   0.992       .  S
O173        H177   0.992       .  S
C179        C180   1.401       .  A
C179        C184   1.400       .  A
C179        H189   1.084       .  S
C180        C185   1.484       .  S
C180        C181   1.408       .  A
C181        C182   1.403       .  A
C181        O186   1.372       .  S
C182        C183   1.406       .  A
C182        H187   1.083       .  S
C183        C184   1.414       .  A
C184        O188   1.371       .  S
C185        C190   1.403       .  A
C185        C194   1.397       .  A
O186        H202   0.991       .  S
O188        H199   0.993       .  S
C190        C191   1.401       .  A
C190        O195   1.371       .  S
C191        C192   1.417       .  A
C191        H196   1.083       .  S
C192        C193   1.429       .  A
C193        C194   1.400       .  A
C193        O197   1.371       .  S
C194        H198   1.084       .  S
O195        H200   0.992       .  S
O197        H201   0.990       .  S
C203        C204   1.403       .  A
C203        C208   1.403       .  A
C203        H213   1.084       .  S
C204        C209   1.478       .  S
C204        C205   1.404       .  A
C205        C206   1.399       .  A
C205        O210   1.373       .  S
C206        C207   1.406       .  A
C206        H211   1.083       .  S
C207        C208   1.412       .  A
C208        O212   1.371       .  S
C209        C214   1.399       .  A
C209        C218   1.399       .  A
O210        H226   0.992       .  S
O212        H223   0.992       .  S
C214        C215   1.393       .  A
C214        O219   1.372       .  S
C215        C216   1.416       .  A
C215        H220   1.080       .  S
C216        C217   1.428       .  A
C217        C218   1.410       .  A
C217        O221   1.372       .  S
C218        H222   1.084       .  S
O219        H224   0.992       .  S
O221        H225   0.993       .  S
C227        C228   1.405       .  A
C227        C232   1.402       .  A
C227        H237   1.084       .  S
C228        C233   1.489   1_565  S
C228        C229   1.409       .  A
C229        C230   1.404       .  A
C229        O234   1.372       .  S
C230        C231   1.406       .  A
C230        H235   1.083       .  S
C231        C232   1.411       .  A
C232        O236   1.371       .  S
C233        C238   1.410       .  A
C233        C242   1.404       .  A
O234        H250   0.992       .  S
O236        H247   0.992       .  S
C238        C239   1.403       .  A
C238        O243   1.371       .  S
C239        C240   1.407       .  A
C239        H244   1.083       .  S
C240        C241   1.411       .  A
C241        C242   1.400       .  A
C241        O245   1.371       .  S
C242        H246   1.084       .  S
O243        H248   0.992       .  S
O245        H249   0.992       .  S
C251        C252   1.397       .  A
C251        C256   1.396       .  A
C251        H261   1.084       .  S
C252        C257   1.489       .  S
C252        C253   1.406       .  A
C253        C254   1.406       .  A
C253        O258   1.371       .  S
C254        C255   1.418       .  A
C254        H259   1.083       .  S
C255        C256   1.429       .  A
C256        O260   1.373       .  S
C257        C262   1.411       .  A
C257        C266   1.407       .  A
O258        H274   0.992       .  S
O260        H271   0.992       .  S
C262        C263   1.393       .  A
C262        O267   1.372       .  S
C263        C264   1.400       .  A
C263        H268   1.084       .  S
C264        C265   1.409       .  A
C265        C266   1.407       .  A
C265        O269   1.371       .  S
C266        H270   1.083       .  S
O267        H272   0.992       .  S
O269        H273   0.992       .  S
C275        C276   1.396       .  A
C275        C280   1.400       .  A
C275        H285   1.084       .  S
C276        C281   1.483   1_556  S
C276        C277   1.405       .  A
C277        C278   1.402       .  A
C277        O282   1.372       .  S
C278        C279   1.418       .  A
C278        H283   1.079       .  S
C279        C280   1.424       .  A
C280        O284   1.372       .  S
C281        C286   1.403       .  A
C281        C290   1.397       .  A
O282        H298   0.992       .  S
O284        H295   0.992       .  S
C286        C287   1.400       .  A
C286        O291   1.372       .  S
C287        C288   1.418       .  A
C287        H292   1.079       .  S
C288        C289   1.423       .  A
C289        C290   1.402       .  A
C289        O293   1.369       .  S
C290        H294   1.084       .  S
O291        H296   0.992       .  S
O293        H297   0.992       .  S
C299        C300   1.401       .  A
C299        C304   1.405       .  A
C299        H309   1.083       .  S
C300        C305   1.490       .  S
C300        C301   1.404       .  A
C301        C302   1.398       .  A
C301        O306   1.372       .  S
C302        C303   1.419       .  A
C302        H307   1.078       .  S
C303        C304   1.424       .  A
C304        O308   1.372       .  S
C305        C310   1.409       .  A
C305        C314   1.405       .  A
O306        H322   0.992       .  S
O308        H319   0.992       .  S
C310        C311   1.401       .  A
C310        O315   1.372       .  S
C311        C312   1.406       .  A
C311        H316   1.083       .  S
C312        C313   1.413       .  A
C313        C314   1.403       .  A
C313        O317   1.372       .  S
C314        H318   1.084       .  S
O315        H320   0.992       .  S
O317        H321   0.992       .  S
C323        C324   1.402       .  A
C323        C328   1.399       .  A
C323        H333   1.084       .  S
C324        C329   1.475       .  S
C324        C325   1.406       .  A
C325        C326   1.396       .  A
C325        O330   1.372       .  S
C326        C327   1.404       .  A
C326        H331   1.083       .  S
C327        C328   1.412       .  A
C328        O332   1.372       .  S
C329        C334   1.402       .  A
C329        C338   1.396       .  A
O330        H346   0.992       .  S
O332        H343   0.992       .  S
C334        C335   1.396       .  A
C334        O339   1.373       .  S
C335        C336   1.417       .  A
C335        H340   1.078       .  S
C336        C337   1.426       .  A
C337        C338   1.399       .  A
C337        O341   1.373       .  S
C338        H342   1.084       .  S
O339        H344   0.992       .  S
O341        H345   0.992       .  S
C347        C348   1.406       .  A
C347        C352   1.405       .  A
C347        H357   1.083       .  S
C348        C353   1.489       .  S
C348        C349   1.410       .  A
C349        C350   1.396       .  A
C349        O354   1.372       .  S
C350        C351   1.404       .  A
C350        H355   1.084       .  S
C351        C352   1.412       .  A
C352        O356   1.371       .  S
C353        C358   1.407       .  A
C353        C362   1.400       .  A
O354        H370   0.992       .  S
O356        H367   0.992       .  S
C358        C359   1.403       .  A
C358        O363   1.371       .  S
C359        C360   1.416       .  A
C359        H364   1.083       .  S
C360        C361   1.426       .  A
C361        C362   1.401       .  A
C361        O365   1.373       .  S
C362        H366   1.084       .  S
O363        H368   0.992       .  S
O365        H369   0.992       .  S
C371        C372   1.398       .  A
C371        C376   1.402       .  A
C371        H381   1.084       .  S
C372        C377   1.484       .  S
C372        C373   1.405       .  A
C373        C374   1.400       .  A
C373        O378   1.373       .  S
C374        C375   1.417       .  A
C374        H379   1.078       .  S
C375        C376   1.426       .  A
C376        O380   1.372       .  S
C377        C382   1.408       .  A
C377        C386   1.402       .  A
O378        H394   0.992       .  S
O380        H391   0.992       .  S
C382        C383   1.401       .  A
C382        O387   1.372       .  S
C383        C384   1.407       .  A
C383        H388   1.083       .  S
C384        C385   1.412       .  A
C385        C386   1.400       .  A
C385        O389   1.372       .  S
C386        H390   1.084       .  S
O387        H392   0.992       .  S
O389        H393   0.992       .  S
C395        C396   1.399       .  A
C395        C400   1.400       .  A
C395        H405   1.083       .  S
C396        C401   1.487       .  S
C396        C397   1.405       .  A
C397        C398   1.403       .  A
C397        O402   1.372       .  S
C398        C399   1.418       .  A
C398        H403   1.079       .  S
C399        C400   1.424       .  A
C400        O404   1.373       .  S
C401        C406   1.408       .  A
C401        C410   1.404       .  A
O402        H418   0.992       .  S
O404        H415   0.992       .  S
C406        C407   1.402       .  A
C406        O411   1.372       .  S
C407        C408   1.406       .  A
C407        H412   1.083       .  S
C408        C409   1.412       .  A
C409        C410   1.404       .  A
C409        O413   1.372       .  S
C410        H414   1.084       .  S
O411        H416   0.992       .  S
O413        H417   0.992       .  S
C419        C420   1.404       .  A
C419        C424   1.403       .  A
C419        H429   1.084       .  S
C420        C425   1.485   1_655  S
C420        C421   1.408       .  A
C421        C422   1.401       .  A
C421        O426   1.372       .  S
C422        C423   1.405       .  A
C422        H427   1.083       .  S
C423        C424   1.412       .  A
C424        O428   1.372       .  S
C425        C430   1.408       .  A
C425        C434   1.402       .  A
O426        H442   0.992       .  S
O428        H439   0.992       .  S
C430        C431   1.402       .  A
C430        O435   1.371       .  S
C431        C432   1.406       .  A
C431        H436   1.083       .  S
C432        C433   1.413       .  A
C433        C434   1.401       .  A
C433        O437   1.371       .  S
C434        H438   1.084       .  S
O435        H440   0.992       .  S
O437        H441   0.992       .  S
C443        C444   1.404       .  A
C443        C448   1.398       .  A
C443        H453   1.083       .  S
C444        C449   1.485   1_545  S
C444        C445   1.410       .  A
C445        C446   1.400       .  A
C445        O450   1.372       .  S
C446        C447   1.405       .  A
C446        H451   1.084       .  S
C447        C448   1.410       .  A
C448        O452   1.371       .  S
C449        C454   1.410       .  A
C449        C458   1.404       .  A
O450        H466   0.992       .  S
O452        H463   0.992       .  S
C454        C455   1.400       .  A
C454        O459   1.372       .  S
C455        C456   1.403       .  A
C455        H460   1.083       .  S
C456        C457   1.411       .  A
C457        C458   1.398       .  A
C457        O461   1.372       .  S
C458        H462   1.083       .  S
O459        H464   0.992       .  S
O461        H465   0.992       .  S
C467        C468   1.401       .  A
C467        C472   1.397       .  A
C467        H477   1.084       .  S
C468        C473   1.480   1_455  S
C468        C469   1.408       .  A
C469        C470   1.403       .  A
C469        O474   1.372       .  S
C470        C471   1.405       .  A
C470        H475   1.083       .  S
C471        C472   1.412       .  A
C472        O476   1.372       .  S
C473        C478   1.408       .  A
C473        C482   1.403       .  A
O474        H490   0.992       .  S
O476        H487   0.992       .  S
C478        C479   1.399       .  A
C478        O483   1.372       .  S
C479        C480   1.405       .  A
C479        H484   1.084       .  S
C480        C481   1.410       .  A
C481        C482   1.399       .  A
C481        O485   1.371       .  S
C482        H486   1.084       .  S
O483        H488   0.992       .  S
O485        H489   0.992       .  S
C491        C492   1.399       .  A
C491        C496   1.409       .  A
C491        H501   1.084       .  S
C492        C497   1.474       .  S
C492        C493   1.398       .  A
C493        C494   1.392       .  A
C493        O498   1.372       .  S
C494        C495   1.418       .  A
C494        H499   1.083       .  S
C495        C496   1.426       .  A
C496        O500   1.372       .  S
C497        C502   1.405       .  A
C497        C506   1.400       .  A
O498        H514   0.991       .  S
O500        H511   0.992       .  S
C502        C503   1.402       .  A
C502        O507   1.372       .  S
C503        C504   1.408       .  A
C503        H508   1.083       .  S
C504        C505   1.412       .  A
C505        C506   1.399       .  A
C505        O509   1.372       .  S
C506        H510   1.084       .  S
O507        H512   0.992       .  S
O509        H513   0.992       .  S
C515        C516   1.399       .  A
C515        C520   1.402       .  A
C515        H525   1.084       .  S
C516        C521   1.484       .  S
C516        C517   1.404       .  A
C517        C518   1.399       .  A
C517        O522   1.372       .  S
C518        C519   1.418       .  A
C518        H523   1.083       .  S
C519        C520   1.426       .  A
C520        O524   1.374       .  S
C521        C526   1.409       .  A
C521        C530   1.403       .  A
O522        H538   0.992       .  S
O524        H535   0.992       .  S
C526        C527   1.400       .  A
C526        O531   1.371       .  S
C527        C528   1.405       .  A
C527        H532   1.083       .  S
C528        C529   1.412       .  A
C529        C530   1.398       .  A
C529        O533   1.371       .  S
C530        H534   1.084       .  S
O531        H536   0.992       .  S
O533        H537   0.992       .  S
C539        C540   1.403       .  A
C539        C544   1.402       .  A
C539        H549   1.084       .  S
C540        C545   1.481       .  S
C540        C541   1.407       .  A
C541        C542   1.398       .  A
C541        O546   1.372       .  S
C542        C543   1.404       .  A
C542        H547   1.083       .  S
C543        C544   1.413       .  A
C544        O548   1.371       .  S
C545        C550   1.407       .  A
C545        C554   1.402       .  A
O546        H562   0.992       .  S
O548        H559   0.992       .  S
C550        C551   1.401       .  A
C550        O555   1.372       .  S
C551        C552   1.406       .  A
C551        H556   1.083       .  S
C552        C553   1.412       .  A
C553        C554   1.400       .  A
C553        O557   1.372       .  S
C554        H558   1.084       .  S
O555        H560   0.992       .  S
O557        H561   0.992       .  S
