geometry optimzed in LAMMPS
_audit_creation_date              2020-11-30 
_audit_creation_method            'lammps2cif' 
_symmetry_space_group_name_H-M    'P1' 
_symmetry_Int_Tables_number       1 
_symmetry_cell_setting            triclinic 
loop_ 
_symmetry_equiv_pos_as_xyz 
  x,y,z 
_cell_length_a                    44.54188637 
_cell_length_b                    25.442059087499562 
_cell_length_c                    44.60440025632997 
_cell_angle_alpha                 90.08687394516897 
_cell_angle_beta                  89.97608259148683 
_cell_angle_gamma                 89.94341469596796 
loop_ 
_atom_site_label 
_atom_site_type_symbol 
_atom_site_fract_x 
_atom_site_fract_y 
_atom_site_fract_z 
_atom_site_charge 
C1          C  0.05599504  0.89291244  0.07483391     0.42800
N2          N  0.04706053  0.95313632  0.04258178     0.01700
C3          C  0.41706380  0.10026561  0.02796510    -0.06200
H4          H  0.40218250  0.89974702  0.01583660     0.07200
C5          C  0.46895284  0.90281796  0.42469247    -0.06500
Co6        Co  0.48952620  0.00920267  0.05513832     0.74200
N7          N  0.43962511  0.94876477  0.02751895    -0.25700
Co8        Co  0.44290644  0.00391175  0.49329455     0.74100
C9          C  0.44015286  0.87875193  0.43259527     0.42900
N10         N  0.03861218  0.94617997  0.45285869     0.01300
N11         N  0.44842148  0.94457798  0.46162789     0.01400
N12         N  0.44757402  0.10137813  0.06849273    -0.46500
H13         H  0.01152018  0.90853594  0.09960745     0.07200
N14         N  0.45733381  0.95067701  0.05116416     0.01700
N15         N  0.44757224  0.05918939  0.45932316     0.01500
C16         C  0.43856663  0.12181136  0.42826476     0.43100
N17         N  0.05643783  0.94854911  0.47645796    -0.25100
C18         C  0.02433254  0.10768034  0.07703032    -0.06100
N19         N  0.06731531  0.91785733  0.05068382    -0.46300
N20         N  0.42777477  0.09593317  0.45233914    -0.46500
C21         C  0.05272747  0.13286942  0.06940339     0.42800
N22         N  0.45583939  0.06485485  0.04900610     0.01700
N23         N  0.05549108  0.06246273  0.47378147    -0.25200
N24         N  0.02333190  0.95346161  0.06029383    -0.25700
N25         N  0.03769633  0.06053604  0.45017704     0.01300
H26         H  0.09460327  0.10843457  0.48446845     0.07200
H27         H  0.48277580  0.10559381  0.40266857     0.07300
N28         N  0.43817354  0.06294998  0.02531077    -0.25700
N29         N  0.47204690  0.94340445  0.44378914    -0.25300
N30         N  0.04559452  0.06747417  0.03989485     0.01700
C31         C  0.42783770  0.88617441  0.05994608     0.43100
C32         C  0.07750842  0.91107835  0.47396444    -0.06600
N33         N  0.47101112  0.05874158  0.44123295    -0.25300
H34         H  0.48409878  0.89323782  0.40654425     0.07300
N35         N  0.45079302  0.91438399  0.07136639    -0.46500
H36         H  0.09611820  0.90552134  0.48917545     0.07200
C37         C  0.06958721  0.12135968  0.43968150     0.42900
C38         C  0.02677816  0.91625069  0.08128362    -0.06100
Co39       Co  0.05171748  0.00795775  0.00833717     0.73800
N40         N  0.04669455  0.90900222  0.43369105    -0.46300
C41         C  0.42353504  0.12596803  0.05653854     0.43200
N42         N  0.06486323  0.10527527  0.04650080    -0.46300
Co43       Co  0.00491195  0.00216816  0.44633450     0.73900
C44         C  0.46746897  0.09715524  0.42084141    -0.06600
C45         C  0.42009941  0.90926069  0.03099887    -0.06100
N46         N  0.02189626  0.06770064  0.05765293    -0.25700
N47         N  0.42862827  0.90740379  0.45533391    -0.46400
H48         H  0.39845723  0.10618822  0.01274740     0.07200
C49         C  0.07621899  0.09984878  0.46939001    -0.06600
Cl50       Cl  0.99728527  0.00583162  0.00074435    -0.49600
C51         C  0.07081456  0.88453759  0.44564143     0.43000
H52         H  0.00892400  0.11591288  0.09524415     0.07200
N53         N  0.04547557  0.09474942  0.42925276    -0.46300
C54         C  0.30674362  0.62555134  0.17807232     0.42800
N55         N  0.29711224  0.56450340  0.20956212     0.01700
C56         C  0.16866242  0.41226386  0.21894305    -0.06200
H57         H  0.14910648  0.60847349  0.23540792     0.07200
C58         C  0.21784950  0.60014730  0.32861338    -0.06500
Co59       Co  0.24016907  0.50821127  0.19516410     0.74200
N60         N  0.18869491  0.56414883  0.22382274    -0.25700
Co61       Co  0.19254306  0.50643951  0.25665819     0.74100
C62         C  0.18928703  0.62538336  0.32163366     0.42900
N63         N  0.28662647  0.56443758  0.29918767     0.01300
N64         N  0.19721323  0.56295460  0.29019903     0.01400
N65         N  0.20011989  0.41520591  0.17922311    -0.46500
H66         H  0.26271881  0.61057850  0.15229527     0.07200
N67         N  0.20689923  0.56510337  0.20047594     0.01700
N68         N  0.19772550  0.44823005  0.28912692     0.01500
C69         C  0.19009804  0.38322419  0.31869877     0.43100
N70         N  0.30476864  0.56519150  0.27581241    -0.25100
C71         C  0.27678092  0.41321769  0.17059789    -0.06100
N72         N  0.31773807  0.59937404  0.20191093    -0.46300
N73         N  0.17815127  0.41085804  0.29578315    -0.46500
C74         C  0.30555183  0.38864433  0.17776808     0.42800
N75         N  0.20723798  0.45090420  0.19956946     0.01700
N76         N  0.30608001  0.45031007  0.27572167    -0.25200
N77         N  0.27354406  0.56516310  0.19165314    -0.25700
N78         N  0.28801161  0.44965958  0.29914274     0.01300
H79         H  0.34616348  0.40679493  0.26465829     0.07200
H80         H  0.23409213  0.39908276  0.34431856     0.07300
N81         N  0.18907489  0.45028315  0.22291321    -0.25700
N82         N  0.22081382  0.56222821  0.30801296    -0.25300
N83         N  0.29686664  0.45052983  0.20931559     0.01700
C84         C  0.17490071  0.62628599  0.19168609     0.43100
C85         C  0.32371589  0.60586385  0.27879010    -0.06600
N86         N  0.22145696  0.44773724  0.30684742    -0.25300
H87         H  0.23314369  0.60716932  0.34696162     0.07300
N88         N  0.19932848  0.60140448  0.18066279    -0.46500
H89         H  0.34177397  0.61518527  0.26353370     0.07200
C90         C  0.32042716  0.38928594  0.30843358     0.42900
C91         C  0.27748895  0.60277563  0.17099590    -0.06100
Co92       Co  0.30180578  0.50753284  0.24253673     0.73800
N93         N  0.29231259  0.60259842  0.31855374    -0.46300
C94         C  0.17604361  0.38899695  0.18983155     0.43200
N95         N  0.31667441  0.41396614  0.20195881    -0.46300
Co96       Co  0.25430922  0.50586840  0.30388144     0.73900
C97         C  0.21871271  0.40788790  0.32627444    -0.06600
C98         C  0.16782042  0.60161439  0.22041780    -0.06100
N99         N  0.27345423  0.45117257  0.19119441    -0.25700
N100        N  0.17749576  0.59966019  0.29783869    -0.46400
H101        H  0.15011482  0.40413677  0.23386247     0.07200
C102        C  0.32727742  0.41337948  0.27945741    -0.06600
Cl103      Cl  0.24721098  0.50697815  0.24953428    -0.49600
C104        C  0.31519281  0.63104676  0.30712206     0.43000
H105        H  0.26165860  0.40572752  0.15214227     0.07200
N106        N  0.29606490  0.41441633  0.31944382    -0.46300
C107        C  0.11780335  0.28508147  0.17211435    -0.01600
C108        C  0.12192497  0.27765256  0.14110598     0.07000
C109        C  0.14411564  0.30630995  0.12610222    -0.07600
C110        C  0.16242123  0.34181642  0.14143288     0.04400
C111        C  0.15819985  0.35005703  0.17259554    -0.14800
C112        C  0.13581047  0.32116538  0.18753883    -0.08200
C113        C  0.10394279  0.23937239  0.12373339     0.05300
C114        C  0.07286095  0.24677665  0.12092891    -0.09300
C115        C  0.05554609  0.21255922  0.10343577     0.00300
C116        C  0.06962916  0.17087694  0.08783461     0.00200
C117        C  0.10074492  0.16372658  0.09070314    -0.12800
C118        C  0.11780750  0.19688467  0.10889693     0.00600
C119        C  0.02364677  0.22206703  0.10138021     0.40000
C120        C  0.14928789  0.18533619  0.11308860     0.36600
C121        C  0.09589626  0.25495692  0.18864158     0.36300
C122        C  0.18502018  0.36906514  0.12422227     0.37100
N123        N  0.99806732  0.22976272  0.10000284    -0.43700
N124        N  0.17445794  0.17612759  0.11681103    -0.44200
N125        N  0.20309759  0.39044753  0.11015023    -0.41500
N126        N  0.07833071  0.23062585  0.20175913    -0.43000
H127        H  0.13246915  0.32616571  0.21146779     0.13200
H128        H  0.14723081  0.30059859  0.10214603     0.09700
H129        H  0.06219270  0.27960454  0.13223738     0.10800
H130        H  0.11168201  0.13113900  0.07942806     0.16600
C131        C  0.13023214  0.22083571  0.42000397    -0.01600
C132        C  0.12371968  0.23226574  0.38976087     0.07000
C133        C  0.09979300  0.20626147  0.37577207    -0.07600
C134        C  0.08183194  0.17054575  0.39143727     0.04400
C135        C  0.08785540  0.15948639  0.42199146    -0.14800
C136        C  0.11232535  0.18492153  0.43580117    -0.08200
C137        C  0.14092826  0.27184821  0.37219201     0.05300
C138        C  0.17173093  0.26420508  0.36697912    -0.09300
C139        C  0.18813641  0.29961905  0.34931958     0.00300
C140        C  0.17362889  0.34348001  0.33642925     0.00200
C141        C  0.14277562  0.35065668  0.34129127    -0.12800
C142        C  0.12648290  0.31572096  0.35921375     0.00600
C143        C  0.21943673  0.28872749  0.34356204     0.40000
C144        C  0.09509937  0.32650552  0.36465978     0.36600
C145        C  0.15472140  0.24619305  0.43553062     0.36300
C146        C  0.05752440  0.14614848  0.37518450     0.37100
N147        N  0.24449795  0.28007519  0.33875653    -0.43700
N148        N  0.06995438  0.33496567  0.36910700    -0.44200
N149        N  0.03809931  0.12683659  0.36194095    -0.41500
N150        N  0.17441206  0.26622057  0.44801926    -0.43000
H151        H  0.11750045  0.17728172  0.45908193     0.12600
H152        H  0.09499629  0.21426028  0.35238631     0.09700
H153        H  0.18284755  0.23000915  0.37629987     0.10800
H154        H  0.13147706  0.38442913  0.33167827     0.16600
C155        C  0.11849495  0.73502872  0.17736998    -0.01600
C156        C  0.12153484  0.74291075  0.14627404     0.07000
C157        C  0.14242156  0.71312054  0.13012374    -0.07600
C158        C  0.16011829  0.67523539  0.14428921     0.04400
C159        C  0.15703946  0.66658186  0.17551555    -0.14800
C160        C  0.13608205  0.69689650  0.19167306    -0.08200
C161        C  0.10377126  0.78261484  0.12981706     0.05300
C162        C  0.11879957  0.82610175  0.11784290    -0.09300
C163        C  0.10379099  0.86197779  0.09948915     0.00300
C164        C  0.07281489  0.85553618  0.09373955     0.00200
C165        C  0.05763987  0.81237801  0.10615613    -0.12800
C166        C  0.07307418  0.77518960  0.12345673     0.00600
C167        C  0.12083764  0.90484879  0.08689240     0.40000
C168        C  0.05768846  0.72791367  0.13258822     0.36600
C169        C  0.09822313  0.76661366  0.19514186     0.36300
C170        C  0.18059550  0.64542062  0.12579920     0.37100
N171        N  0.13464774  0.93883371  0.07658735    -0.43700
N172        N  0.04565404  0.68953103  0.13955452    -0.44200
N173        N  0.19689625  0.62181167  0.11069435    -0.41500
N174        N  0.08212268  0.79199045  0.20951386    -0.43000
H175        H  0.13365779  0.69148811  0.21566231     0.13200
H176        H  0.14475269  0.71938963  0.10614336     0.09700
H177        H  0.14255037  0.83120725  0.12226004     0.10800
H178        H  0.03403351  0.80656307  0.10129582     0.16600
C179        C  0.38324748  0.19044695  0.12130639    -0.01600
C180        C  0.36782061  0.23185648  0.10708880     0.07000
C181        C  0.37043574  0.23821797  0.07597414    -0.07600
C182        C  0.38858747  0.20439970  0.05899349     0.04400
C183        C  0.40411583  0.16294146  0.07324340    -0.14800
C184        C  0.40116915  0.15642056  0.10436626    -0.08200
C185        C  0.35125736  0.27169571  0.12480300     0.05300
C186        C  0.36762557  0.30407910  0.14420931    -0.09300
C187        C  0.35330570  0.34183692  0.16191210     0.00300
C188        C  0.32178540  0.34828738  0.16002205     0.00200
C189        C  0.30543888  0.31590403  0.14031400    -0.12800
C190        C  0.31988036  0.27760646  0.12288387     0.00600
C191        C  0.37185385  0.37377049  0.18122674     0.40000
C192        C  0.30203624  0.24372561  0.10398525     0.36600
C193        C  0.38110547  0.18251853  0.15330539     0.36300
C194        C  0.39259915  0.21553132  0.02751525     0.37100
N195        N  0.38687827  0.39911280  0.19669477    -0.43700
N196        N  0.28772321  0.21639221  0.08895266    -0.44200
N197        N  0.39600135  0.22492457  0.00236153    -0.41500
N198        N  0.37934768  0.17671609  0.17897533    -0.43000
H199        H  0.41288030  0.12457891  0.11552824     0.13200
H200        H  0.35914067  0.27086949  0.06513604     0.09700
H201        H  0.39183807  0.29967822  0.14552755     0.10800
H202        H  0.28123600  0.31981421  0.13881360     0.16600
C203        C  0.37411434  0.82266058  0.39014853    -0.01600
C204        C  0.38604110  0.77591899  0.37811454     0.07000
C205        C  0.41602240  0.76254687  0.38413488    -0.07600
C206        C  0.43417595  0.79532188  0.40186787     0.04400
C207        C  0.42210143  0.84193908  0.41420137    -0.14800
C208        C  0.39196744  0.85473522  0.40838811    -0.08200
C209        C  0.36719975  0.73988163  0.35991850     0.05300
C210        C  0.36724419  0.74430511  0.32858057    -0.09300
C211        C  0.34967029  0.71071943  0.31078499     0.00300
C212        C  0.33206655  0.67118091  0.32448188     0.00200
C213        C  0.33123020  0.66846309  0.35594583    -0.12800
C214        C  0.34859272  0.70220798  0.37362844     0.00600
C215        C  0.34910260  0.71943219  0.27881394     0.40000
C216        C  0.34732452  0.69692025  0.40582118     0.36600
C217        C  0.34385816  0.83912769  0.38333476     0.36300
C218        C  0.46468833  0.77934616  0.40789015     0.37100
N219        N  0.34855373  0.72692631  0.25322729    -0.43700
N220        N  0.34625577  0.69252163  0.43161676    -0.44200
N221        N  0.48911626  0.76629150  0.41268398    -0.41500
N222        N  0.31971117  0.85252040  0.37756322    -0.43000
H223        H  0.38253542  0.89070664  0.41745758     0.13200
H224        H  0.42517414  0.72636195  0.37505841     0.09700
H225        H  0.38089107  0.77442714  0.31803072     0.10800
H226        H  0.31753124  0.63886665  0.36688873     0.16600
C227        C  0.42283702  0.23449751  0.37442227    -0.01600
C228        C  0.39190780  0.24378647  0.37899554     0.07000
C229        C  0.37651281  0.21336737  0.40016373    -0.07600
C230        C  0.39117188  0.17415921  0.41660503     0.04400
C231        C  0.42216182  0.16412915  0.41185906    -0.14800
C232        C  0.43761120  0.19496108  0.39071932    -0.08200
C233        C  0.37469601  0.28307157  0.36105080     0.05300
C234        C  0.37288627  0.27678010  0.32980961    -0.09300
C235        C  0.35529427  0.31058807  0.31224690     0.00300
C236        C  0.33920226  0.35206832  0.32591785     0.00200
C237        C  0.34090924  0.35821903  0.35718511    -0.12800
C238        C  0.35837960  0.32427995  0.37474882     0.00600
C239        C  0.35262880  0.29961735  0.28059852     0.40000
C240        C  0.35924926  0.33272672  0.40676713     0.36600
C241        C  0.43997838  0.26566049  0.35350808     0.36300
C242        C  0.37329236  0.14409110  0.43743405     0.37100
N243        N  0.35032030  0.29051431  0.25527338    -0.43700
N244        N  0.35973336  0.33940827  0.43243430    -0.44200
N245        N  0.35880793  0.12014294  0.45406722    -0.41500
N246        N  0.45367755  0.29068637  0.33673375    -0.43000
H247        H  0.46138385  0.18850901  0.38694266     0.13200
H248        H  0.35263881  0.21969684  0.40348566     0.09700
H249        H  0.38459901  0.24430633  0.31919551     0.10800
H250        H  0.32868113  0.38990400  0.36797923     0.16600
C251        C  0.10825328  0.81495665  0.38080387    -0.01600
C252        C  0.12370961  0.77375727  0.39509170     0.07000
C253        C  0.12283528  0.76988683  0.42645185    -0.07600
C254        C  0.10610416  0.80585824  0.44358891     0.04400
C255        C  0.08960937  0.84605022  0.42912155    -0.14800
C256        C  0.09102776  0.85007263  0.39774107    -0.08200
C257        C  0.14045347  0.73415901  0.37729186     0.05300
C258        C  0.17178342  0.73762666  0.37551425    -0.09300
C259        C  0.18812306  0.70367839  0.35685794     0.00300
C260        C  0.17300940  0.66441674  0.34019556     0.00200
C261        C  0.14158621  0.66135922  0.34190814    -0.12800
C262        C  0.12528128  0.69585202  0.36018494     0.00600
C263        C  0.21999936  0.71244961  0.35372073     0.40000
C264        C  0.09296769  0.69150111  0.36094939     0.36600
C265        C  0.11049330  0.82258785  0.34880295     0.36300
C266        C  0.10546223  0.79938690  0.47573789     0.37100
N267        N  0.24548984  0.71989082  0.35100322    -0.43700
N268        N  0.06706115  0.68822569  0.36146651    -0.44200
N269        N  0.10506739  0.79422843  0.50151576    -0.41500
N270        N  0.11268549  0.82858167  0.32318507    -0.43000
H271        H  0.07906552  0.88136723  0.38638845     0.13200
H272        H  0.13492701  0.73837902  0.43747157     0.09700
H273        H  0.18338765  0.76814103  0.38799671     0.10800
H274        H  0.12969130  0.63156299  0.32915767     0.16600
C275        C  0.39136677  0.81500673  0.12448212    -0.01600
C276        C  0.37761489  0.77226653  0.10990177     0.07000
C277        C  0.38079193  0.76616258  0.07887514    -0.07600
C278        C  0.39721221  0.80258555  0.06208922     0.04400
C279        C  0.41113487  0.84553424  0.07662320    -0.14800
C280        C  0.40838024  0.85081364  0.10786926    -0.08200
C281        C  0.35955754  0.73367058  0.12668984     0.05300
C282        C  0.32901211  0.74383364  0.13139461    -0.09300
C283        C  0.31123979  0.70867112  0.14767835     0.00300
C284        C  0.32431741  0.66303453  0.16000383     0.00200
C285        C  0.35497367  0.65294412  0.15517640    -0.12800
C286        C  0.37253557  0.68751837  0.13825534     0.00600
C287        C  0.27997490  0.72126369  0.15229524     0.40000
C288        C  0.40368484  0.67491255  0.13272335     0.36600
C289        C  0.38757925  0.82348984  0.15628728     0.36300
C290        C  0.39980527  0.79415204  0.03017495     0.37100
N291        N  0.25488555  0.73126575  0.15594234    -0.43700
N292        N  0.42860064  0.66495186  0.12798364    -0.44200
N293        N  0.40167443  0.78735528  0.00457863    -0.41500
N294        N  0.38423367  0.83035336  0.18172579    -0.43000
H295        H  0.41874019  0.88384913  0.11921566     0.13200
H296        H  0.37023791  0.73311923  0.06779417     0.09700
H297        H  0.31910630  0.77947402  0.12239834     0.10800
H298        H  0.36511010  0.61757341  0.16424650     0.16600
C299        C  0.05600507  0.89294981  0.57483631     0.42800
N300        N  0.04707037  0.95316729  0.54258091     0.01700
C301        C  0.41705037  0.10024969  0.52797614    -0.06200
H302        H  0.40219689  0.89975085  0.51582672     0.07200
C303        C  0.46895796  0.90277715  0.92470786    -0.06500
Co304      Co  0.48952973  0.00921388  0.55513542     0.74200
N305        N  0.43963389  0.94876518  0.52751275    -0.25700
Co306      Co  0.44290739  0.00389999  0.99329465     0.74100
C307        C  0.44016089  0.87870801  0.93261705     0.42900
N308        N  0.03860926  0.94614955  0.95286261     0.01300
N309        N  0.44842366  0.94455523  0.96163517     0.01400
N310        N  0.44756052  0.10136350  0.56850408    -0.46500
H311        H  0.01152690  0.90856533  0.59960432     0.07200
N312        N  0.45734864  0.95066862  0.55115310     0.01700
N313        N  0.44757540  0.05916753  0.95931824     0.01500
C314        C  0.43856450  0.12177989  0.92825383     0.43100
N315        N  0.05643319  0.94851853  0.97646284    -0.25100
C316        C  0.02432657  0.10771211  0.57702684    -0.06100
N317        N  0.06732732  0.91789333  0.55068620    -0.46300
N318        N  0.42777613  0.09590598  0.95233100    -0.46500
C319        C  0.05272073  0.13290427  0.56939926     0.42800
N320        N  0.45583296  0.06485281  0.54901213     0.01700
N321        N  0.05549296  0.06243015  0.97378290    -0.25200
N322        N  0.02334065  0.95348903  0.56029124    -0.25700
N323        N  0.03769912  0.06050518  0.95017753     0.01300
H324        H  0.09460391  0.10840301  0.98447417     0.07200
H325        H  0.48277310  0.10555919  0.90265677     0.07300
N326        N  0.43816724  0.06294806  0.52531679    -0.25700
N327        N  0.47204863  0.94337700  0.94379587    -0.25300
N328        N  0.04559183  0.06750366  0.53989367     0.01700
C329        C  0.42787053  0.88612983  0.55992418     0.43100
C330        C  0.07750426  0.91104932  0.97397114    -0.06600
N331        N  0.47101360  0.05871676  0.94122751    -0.25300
H332        H  0.48410545  0.89318601  0.90656283     0.07300
N333        N  0.45082474  0.91434641  0.57134324    -0.46500
H334        H  0.09611412  0.90549548  0.98918265     0.07200
C335        C  0.06959035  0.12133000  0.93968504     0.42900
C336        C  0.02678693  0.91628219  0.58128218    -0.06100
Co337      Co  0.05172012  0.00798824  0.50833500     0.73800
N338        N  0.04669390  0.90897322  0.93369524    -0.46300
C339        C  0.42351676  0.12594395  0.55655265     0.43200
N340        N  0.06485829  0.10530877  0.54649847    -0.46300
Co341      Co  0.00491231  0.00214112  0.94633474     0.73900
C342        C  0.46746836  0.09712468  0.92083176    -0.06600
C343        C  0.42011623  0.90924822  0.53098760    -0.06100
N344        N  0.02189293  0.06772742  0.55765162    -0.25700
N345        N  0.42863404  0.90737155  0.95534963    -0.46400
H346        H  0.39844233  0.10616712  0.51275935     0.07200
C347        C  0.07622115  0.09981598  0.96939307    -0.06600
Cl348      Cl  0.99728653  0.00585182  0.50074351    -0.49600
C349        C  0.07081320  0.88450964  0.94564783     0.43000
H350        H  0.00891752  0.11594829  0.59524010     0.07200
N351        N  0.04547899  0.09472059  0.92925471    -0.46300
C352        C  0.30673725  0.62559709  0.67808595     0.42800
N353        N  0.29709849  0.56454511  0.70957585     0.01700
C354        C  0.16865702  0.41228896  0.71894259    -0.06200
H355        H  0.14907695  0.60844717  0.73542226     0.07200
C356        C  0.21786693  0.60014091  0.82862440    -0.06500
Co357      Co  0.24015896  0.50825032  0.69516763     0.74200
N358        N  0.18868293  0.56416641  0.72383924    -0.25700
Co359      Co  0.19254022  0.50644925  0.75666828     0.74100
C360        C  0.18930949  0.62539358  0.82164609     0.42900
N361        N  0.28663074  0.56442406  0.79919709     0.01300
N362        N  0.19721902  0.56295587  0.79021344     0.01400
N363        N  0.20010835  0.41524994  0.67921784    -0.46500
H364        H  0.26271931  0.61059515  0.65229658     0.07200
N365        N  0.20688485  0.56513423  0.70049066     0.01700
N366        N  0.19772489  0.44822922  0.78913204     0.01500
C367        C  0.19009415  0.38323204  0.81871059     0.43100
N368        N  0.30477051  0.56518529  0.77582079    -0.25100
C369        C  0.27677964  0.41328530  0.67057551    -0.06100
N370        N  0.31772350  0.59941897  0.70192898    -0.46300
N371        N  0.17814755  0.41086470  0.79579388    -0.46500
C372        C  0.30555431  0.38871685  0.67773885     0.42800
N373        N  0.20722919  0.45093897  0.69956873     0.01700
N374        N  0.30607568  0.45030127  0.77571004    -0.25200
N375        N  0.27353325  0.56520500  0.69166339    -0.25700
N376        N  0.28800788  0.44964334  0.79913156     0.01300
H377        H  0.34614904  0.40676461  0.76463500     0.07200
H378        H  0.23409148  0.39908774  0.84432521     0.07300
N379        N  0.18906965  0.45030637  0.72291549    -0.25700
N380        N  0.22082161  0.56221952  0.80802462    -0.25300
N381        N  0.29686072  0.45057119  0.70930348     0.01700
C382        C  0.17486308  0.62627940  0.69169919     0.43100
C383        C  0.32372055  0.60585199  0.77880175    -0.06600
N384        N  0.22145792  0.44773230  0.80684998    -0.25300
H385        H  0.23316626  0.60715706  0.84696937     0.07300
N386        N  0.19929872  0.60142191  0.68067540    -0.46500
H387        H  0.34177744  0.61517381  0.76354373     0.07200
C388        C  0.32040999  0.38924018  0.80840786     0.42900
C389        C  0.27748375  0.60281228  0.67100420    -0.06100
Co390      Co  0.30180009  0.50754963  0.74253634     0.73800
N391        N  0.29231965  0.60257802  0.81856672    -0.46300
C392        C  0.17603444  0.38903453  0.68982660     0.43200
N393        N  0.31667310  0.41402206  0.70193641    -0.46300
Co394      Co  0.25431167  0.50585737  0.80388416     0.73900
C395        C  0.21871209  0.40788886  0.82628049    -0.06600
C396        C  0.16779516  0.60160984  0.72043397    -0.06100
N397        N  0.27344767  0.45122046  0.69118330    -0.25700
N398        N  0.17751027  0.59967501  0.79785324    -0.46400
H399        H  0.15011234  0.40415570  0.73386394     0.07200
C400        C  0.32726568  0.41335307  0.77943697    -0.06600
Cl401      Cl  0.24720669  0.50699110  0.74953794    -0.49600
C402        C  0.31520057  0.63102734  0.80713670     0.43000
H403        H  0.26165861  0.40580655  0.65211762     0.07200
N404        N  0.29605302  0.41437848  0.81942307    -0.46300
C405        C  0.11778827  0.28512823  0.67211330    -0.01600
C406        C  0.12192136  0.27767038  0.64110886     0.07000
C407        C  0.14412485  0.30630034  0.62610672    -0.07600
C408        C  0.16243075  0.34180978  0.64143513     0.04400
C409        C  0.15819409  0.35008627  0.67259280    -0.14800
C410        C  0.13579346  0.32121862  0.68753439    -0.08200
C411        C  0.10393716  0.23938948  0.62373891     0.05300
C412        C  0.07285902  0.24682072  0.62091500    -0.09300
C413        C  0.05554440  0.21261092  0.60341648     0.00300
C414        C  0.06962361  0.17090418  0.58783404     0.00200
C415        C  0.10073518  0.16372437  0.59072341    -0.12800
C416        C  0.11779771  0.19687988  0.60891889     0.00600
C417        C  0.02365093  0.22215712  0.60132928     0.40000
C418        C  0.14927387  0.18531235  0.61312545     0.36600
C419        C  0.09587255  0.25502525  0.68864176     0.36300
C420        C  0.18504980  0.36901464  0.62422823     0.37100
N421        N  0.99807635  0.22988640  0.59992381    -0.43700
N422        N  0.17444073  0.17609043  0.61685860    -0.44200
N423        N  0.20314381  0.39035746  0.61015780    -0.41500
N424        N  0.07830166  0.23071177  0.70176279    -0.43000
H425        H  0.13244139  0.32624142  0.71146024     0.13200
H426        H  0.14725073  0.30056326  0.60215378     0.09700
H427        H  0.06219441  0.27966740  0.63220906     0.10800
H428        H  0.11166856  0.13111918  0.57946111     0.16600
C429        C  0.13024505  0.22078843  0.92000641    -0.01600
C430        C  0.12371024  0.23227183  0.88977387     0.07000
C431        C  0.09976897  0.20629714  0.87579119    -0.07600
C432        C  0.08181307  0.17056927  0.89145318     0.04400
C433        C  0.08785504  0.15946712  0.92199843    -0.14800
C434        C  0.11234112  0.18486612  0.93580089    -0.08200
C435        C  0.14091895  0.27186016  0.87220655     0.05300
C436        C  0.17172460  0.26422884  0.86700458    -0.09300
C437        C  0.18813227  0.29964309  0.84934761     0.00300
C438        C  0.17362422  0.34349300  0.83644541     0.00200
C439        C  0.14276844  0.35065957  0.84129621    -0.12800
C440        C  0.12647298  0.31572362  0.85921660     0.00600
C441        C  0.21943603  0.28875897  0.84360468     0.40000
C442        C  0.09508440  0.32649555  0.86464230     0.36600
C443        C  0.15476020  0.24608554  0.93552440     0.36300
C444        C  0.05749317  0.14619982  0.87520530     0.37100
N445        N  0.24450012  0.28011014  0.83881225    -0.43700
N446        N  0.06993464  0.33494460  0.86906949    -0.44200
N447        N  0.03805896  0.12690799  0.86196561    -0.41500
N448        N  0.17447400  0.26605811  0.94800532    -0.43000
H449        H  0.11753423  0.17718632  0.95907357     0.12600
H450        H  0.09495879  0.21432311  0.85241130     0.09700
H451        H  0.18284262  0.23003871  0.87633052     0.10800
H452        H  0.13146882  0.38442267  0.83167364     0.16600
C453        C  0.11845208  0.73501393  0.67737941    -0.01600
C454        C  0.12148246  0.74287419  0.64628051     0.07000
C455        C  0.14234830  0.71304611  0.63012646    -0.07600
C456        C  0.16004167  0.67515831  0.64429286     0.04400
C457        C  0.15698500  0.66654692  0.67552487    -0.14800
C458        C  0.13603920  0.69688291  0.69168457    -0.08200
C459        C  0.10373559  0.78260001  0.62982330     0.05300
C460        C  0.11878384  0.82606214  0.61784387    -0.09300
C461        C  0.10379128  0.86195475  0.59948737     0.00300
C462        C  0.07281291  0.85555153  0.59373770     0.00200
C463        C  0.05761880  0.81241771  0.60615872    -0.12800
C464        C  0.07303516  0.77521624  0.62346519     0.00600
C465        C  0.12085494  0.90480650  0.58689229     0.40000
C466        C  0.05762480  0.72797268  0.63260939     0.36600
C467        C  0.09819125  0.76662036  0.69515149     0.36300
C468        C  0.18049058  0.64529326  0.62579808     0.37100
N469        N  0.13467907  0.93877711  0.57659059    -0.43700
N470        N  0.04556851  0.68961745  0.63958697    -0.44200
N471        N  0.19676741  0.62164138  0.61068937    -0.41500
N472        N  0.08209834  0.79201264  0.70952308    -0.43000
H473        H  0.13362749  0.69149626  0.71567639     0.13200
H474        H  0.14466734  0.71929078  0.60614310     0.09700
H475        H  0.14253707  0.83113622  0.62226050     0.10800
H476        H  0.03400941  0.80663426  0.60130038     0.16600
C477        C  0.38322585  0.19045861  0.62130892    -0.01600
C478        C  0.36781374  0.23187908  0.60708524     0.07000
C479        C  0.37043758  0.23823154  0.57597081    -0.07600
C480        C  0.38858409  0.20439528  0.55899655     0.04400
C481        C  0.40409998  0.16292906  0.57325251    -0.14800
C482        C  0.40114388  0.15641528  0.60437501    -0.08200
C483        C  0.35125427  0.27173458  0.62479179     0.05300
C484        C  0.36762214  0.30410175  0.64420732    -0.09300
C485        C  0.35330413  0.34187025  0.66190458     0.00300
C486        C  0.32178709  0.34835659  0.65999418     0.00200
C487        C  0.30544184  0.31599235  0.64027522    -0.12800
C488        C  0.31988013  0.27767605  0.62285622     0.00600
C489        C  0.37185054  0.37376412  0.68124239     0.40000
C490        C  0.30203355  0.24379755  0.60395877     0.36600
C491        C  0.38107108  0.18253482  0.65330747     0.36300
C492        C  0.39260328  0.21551488  0.52751787     0.37100
N493        N  0.38687399  0.39906980  0.69673094    -0.43700
N494        N  0.28771762  0.21646295  0.58892973    -0.44200
N495        N  0.39601156  0.22489640  0.50236354    -0.41500
N496        N  0.37930267  0.17673617  0.67897698    -0.43000
H497        H  0.41284463  0.12456661  0.61554106     0.13200
H498        H  0.35915302  0.27088907  0.56512773     0.09700
H499        H  0.39183208  0.29967467  0.64554041     0.10800
H500        H  0.28124075  0.31992498  0.63876153     0.16600
C501        C  0.37412438  0.82266608  0.89015164    -0.01600
C502        C  0.38603866  0.77590100  0.87813554     0.07000
C503        C  0.41601179  0.76249672  0.88417332    -0.07600
C504        C  0.43416959  0.79526286  0.90190689     0.04400
C505        C  0.42210667  0.84190300  0.91422289    -0.14800
C506        C  0.39198109  0.85473223  0.90839154    -0.08200
C507        C  0.36719364  0.73987438  0.85993782     0.05300
C508        C  0.36726885  0.74426070  0.82859865    -0.09300
C509        C  0.34969767  0.71067674  0.81080003     0.00300
C510        C  0.33206920  0.67116981  0.82449586     0.00200
C511        C  0.33120079  0.66849397  0.85596041    -0.12800
C512        C  0.34855669  0.70224441  0.87364583     0.00600
C513        C  0.34915895  0.71936363  0.77882626     0.40000
C514        C  0.34724882  0.69701049  0.90583996     0.36600
C515        C  0.34387853  0.83916688  0.88331915     0.36300
C516        C  0.46467319  0.77925599  0.90794674     0.37100
N517        N  0.34863401  0.72684037  0.75323741    -0.43700
N518        N  0.34614697  0.69265850  0.93163679    -0.44200
N519        N  0.48909364  0.76617315  0.91275354    -0.41500
N520        N  0.31974018  0.85258890  0.87753386    -0.43000
H521        H  0.38255922  0.89072199  0.91744715     0.13200
H522        H  0.42515363  0.72629441  0.87510980     0.09700
H523        H  0.38093757  0.77435369  0.81804985     0.10800
H524        H  0.31748014  0.63892787  0.86690292     0.16600
C525        C  0.42280672  0.23443717  0.87439620    -0.01600
C526        C  0.39187571  0.24370822  0.87897008     0.07000
C527        C  0.37649032  0.21329270  0.90014702    -0.07600
C528        C  0.39116054  0.17410676  0.91659621     0.04400
C529        C  0.42215060  0.16408364  0.91184325    -0.14800
C530        C  0.43759042  0.19491212  0.89069477    -0.08200
C531        C  0.37465656  0.28298602  0.86102517     0.05300
C532        C  0.37285593  0.27670917  0.82978199    -0.09300
C533        C  0.35527265  0.31053047  0.81221784     0.00300
C534        C  0.33917688  0.35200512  0.82589000     0.00200
C535        C  0.34087089  0.35813499  0.85715935    -0.12800
C536        C  0.35833521  0.32418795  0.87472367     0.00600
C537        C  0.35262489  0.29958611  0.78056503     0.40000
C538        C  0.35919884  0.33262883  0.90674261     0.36600
C539        C  0.43994130  0.26561833  0.85348535     0.36300
C540        C  0.37329367  0.14406315  0.93744768     0.37100
N541        N  0.35033202  0.29050512  0.75523588    -0.43700
N542        N  0.35967870  0.33930796  0.93241005    -0.44200
N543        N  0.35882090  0.12013686  0.95410124    -0.41500
N544        N  0.45363334  0.29066446  0.83671507    -0.43000
H545        H  0.46136351  0.18847087  0.88691547     0.13200
H546        H  0.35261627  0.21961337  0.90347390     0.09700
H547        H  0.38457362  0.24424206  0.81916623     0.10800
H548        H  0.32863980  0.38981555  0.86795515     0.16600
C549        C  0.10827334  0.81498859  0.88080378    -0.01600
C550        C  0.12375271  0.77381254  0.89508918     0.07000
C551        C  0.12288147  0.76993394  0.92644885    -0.07600
C552        C  0.10613069  0.80587226  0.94358838     0.04400
C553        C  0.08962027  0.84604780  0.92912432    -0.14800
C554        C  0.09103581  0.85008025  0.89774436    -0.08200
C555        C  0.14049490  0.73421699  0.87728714     0.05300
C556        C  0.17182628  0.73766260  0.87551705    -0.09300
C557        C  0.18816278  0.70369207  0.85687077     0.00300
C558        C  0.17304187  0.66444255  0.84020476     0.00200
C559        C  0.14161806  0.66140757  0.84191147    -0.12800
C560        C  0.12531819  0.69591014  0.86018499     0.00600
C561        C  0.22004587  0.71241535  0.85375639     0.40000
C562        C  0.09300496  0.69155729  0.86095951     0.36600
C563        C  0.11049009  0.82260956  0.84880041     0.36300
C564        C  0.10547687  0.79937199  0.97573520     0.37100
N565        N  0.24554287  0.71981287  0.85106021    -0.43700
N566        N  0.06709882  0.68827855  0.86148790    -0.44200
N567        N  0.10506963  0.79418692  0.00151112    -0.41500
N568        N  0.11265834  0.82859554  0.82317991    -0.43000
H569        H  0.07905752  0.88135887  0.88639413     0.13200
H570        H  0.13498422  0.73843559  0.93746570     0.09700
H571        H  0.18343498  0.76816830  0.88800255     0.10800
H572        H  0.12971850  0.63161470  0.82916271     0.16600
C573        C  0.39157762  0.81480085  0.62450447    -0.01600
C574        C  0.37768949  0.77220564  0.60991692     0.07000
C575        C  0.38071924  0.76623657  0.57886865    -0.07600
C576        C  0.39713022  0.80264993  0.56206765     0.04400
C577        C  0.41118272  0.84546864  0.57660563    -0.14800
C578        C  0.40857364  0.85060544  0.60787298    -0.08200
C579        C  0.35962013  0.73364407  0.62671486     0.05300
C580        C  0.32903258  0.74366771  0.63123080    -0.09300
C581        C  0.31123765  0.70853313  0.64750928     0.00300
C582        C  0.32433137  0.66305787  0.66001531     0.00200
C583        C  0.35503141  0.65310362  0.65536752    -0.12800
C584        C  0.37261993  0.68765129  0.63845733     0.00600
C585        C  0.27992770  0.72100087  0.65192379     0.40000
C586        C  0.40381261  0.67515371  0.63309283     0.36600
C587        C  0.38792302  0.82317468  0.65633438     0.36300
C588        C  0.39956972  0.79433138  0.53013213     0.37100
N589        N  0.25480255  0.73091180  0.65540144    -0.43700
N590        N  0.42876338  0.66527292  0.62848469    -0.44200
N591        N  0.40130922  0.78761424  0.50451996    -0.41500
N592        N  0.38468406  0.82996048  0.68179330    -0.43000
H593        H  0.41903027  0.88353810  0.61922763     0.13200
H594        H  0.37005926  0.73330288  0.56778342     0.09700
H595        H  0.31911047  0.77918407  0.62209279     0.10800
H596        H  0.36518544  0.61785169  0.66456728     0.16600
C597        C  0.55599460  0.89291269  0.07483449     0.42800
N598        N  0.54706038  0.95313773  0.04258318     0.01700
C599        C  0.91706338  0.10026388  0.02796488    -0.06200
H600        H  0.90218114  0.89975152  0.01583581     0.07200
C601        C  0.96895445  0.90281594  0.42469264    -0.06500
Co602      Co  0.98952653  0.00920184  0.05513691     0.74200
N603        N  0.93962498  0.94876521  0.02751738    -0.25700
Co604      Co  0.94290660  0.00391054  0.49329373     0.74100
C605        C  0.94015481  0.87874884  0.43259546     0.42900
N606        N  0.53861169  0.94617992  0.45285823     0.01300
N607        N  0.94842227  0.94457646  0.46162734     0.01400
N608        N  0.94757331  0.10137543  0.06849273    -0.46500
H609        H  0.51151963  0.90853527  0.09960829     0.07200
N610        N  0.95733414  0.95067612  0.05116220     0.01700
N611        N  0.94757235  0.05918814  0.45932224     0.01500
C612        C  0.93856663  0.12180920  0.42826323     0.43100
N613        N  0.55643753  0.94854891  0.47645737    -0.25100
C614        C  0.52433173  0.10768043  0.07703212    -0.06100
N615        N  0.56731504  0.91785837  0.05068480    -0.46300
N616        N  0.92777467  0.09593130  0.45233771    -0.46500
C617        C  0.55272657  0.13286975  0.06940542     0.42800
N618        N  0.95583950  0.06485397  0.04900532     0.01700
N619        N  0.55549115  0.06246247  0.47378118    -0.25200
N620        N  0.52333166  0.95346257  0.06029519    -0.25700
N621        N  0.53769620  0.06053599  0.45017692     0.01300
H622        H  0.59460327  0.10843446  0.48446801     0.07200
H623        H  0.98277618  0.10559196  0.40266764     0.07300
N624        N  0.93817371  0.06294965  0.02530986    -0.25700
N625        N  0.97204787  0.94340322  0.44378880    -0.25300
N626        N  0.54559397  0.06747528  0.03989641     0.01700
C627        C  0.92783708  0.88617457  0.05994429     0.43100
C628        C  0.57750831  0.91107861  0.47396347    -0.06600
N629        N  0.97101141  0.05874048  0.44123229    -0.25300
H630        H  0.98410106  0.89323536  0.40654442     0.07300
N631        N  0.95079324  0.91438273  0.07136418    -0.46500
H632        H  0.59611837  0.90552179  0.48917432     0.07200
C633        C  0.56958690  0.12135996  0.43968123     0.42900
C634        C  0.52677782  0.91625089  0.08128451    -0.06100
Co635      Co  0.55171759  0.00795928  0.00833878     0.73800
N636        N  0.54669418  0.90900270  0.43369028    -0.46300
C637        C  0.92353396  0.12596473  0.05653882     0.43200
N638        N  0.56486257  0.10527634  0.04650270    -0.46300
Co639      Co  0.50491146  0.00216865  0.44633459     0.73900
C640        C  0.96746923  0.09715358  0.42084042    -0.06600
C641        C  0.92009848  0.90926234  0.03099741    -0.06100
N642        N  0.52189569  0.06770126  0.05765440    -0.25700
N643        N  0.92862968  0.90740115  0.45533368    -0.46400
H644        H  0.89845633  0.10618602  0.01274728     0.07200
C645        C  0.57621903  0.09984862  0.46938963    -0.06600
Cl646      Cl  0.49728543  0.00583209  0.00074582    -0.49600
C647        C  0.57081445  0.88453826  0.44564038     0.43000
H648        H  0.50892321  0.11591225  0.09524595     0.07200
N649        N  0.54547524  0.09474958  0.42925265    -0.46300
C650        C  0.80674311  0.62555299  0.17807254     0.42800
N651        N  0.79711215  0.56450244  0.20956102     0.01700
C652        C  0.66866188  0.41226547  0.21894224    -0.06200
H653        H  0.64910737  0.60847544  0.23540751     0.07200
C654        C  0.71785074  0.60014654  0.32861291    -0.06500
Co655      Co  0.74016884  0.50821130  0.19516279     0.74200
N656        N  0.68869543  0.56414988  0.22382207    -0.25700
Co657      Co  0.69254347  0.50644007  0.25665740     0.74100
C658        C  0.68928823  0.62538296  0.32163365     0.42900
N659        N  0.78662775  0.56443556  0.29918636     0.01300
N660        N  0.69721421  0.56295477  0.29019844     0.01400
N661        N  0.70011890  0.41520731  0.17922186    -0.46500
H662        H  0.76271850  0.61057936  0.15229475     0.07200
N663        N  0.70689957  0.56510406  0.20047514     0.01700
N664        N  0.69772606  0.44822985  0.28912585     0.01500
C665        C  0.69009923  0.38322283  0.31869719     0.43100
N666        N  0.80476987  0.56518888  0.27581106    -0.25100
C667        C  0.77677929  0.41321628  0.17059631    -0.06100
N668        N  0.81773747  0.59937457  0.20191083    -0.46300
N669        N  0.67815215  0.41085726  0.29578189    -0.46500
C670        C  0.80554983  0.38864159  0.17776634     0.42800
N671        N  0.70723742  0.45090522  0.19956827     0.01700
N672        N  0.80607990  0.45030728  0.27571956    -0.25200
N673        N  0.77354411  0.56516245  0.19165191    -0.25700
N674        N  0.78801188  0.44965750  0.29914094     0.01300
H675        H  0.84616219  0.40678948  0.26465527     0.07200
H676        H  0.73409358  0.39908142  0.34431678     0.07300
N677        N  0.68907464  0.45028429  0.22291223    -0.25700
N678        N  0.72081496  0.56222787  0.30801223    -0.25300
N679        N  0.79686590  0.45052827  0.20931358     0.01700
C680        C  0.67490151  0.62628745  0.19168548     0.43100
C681        C  0.82371804  0.60585985  0.27878912    -0.06600
N682        N  0.72145765  0.44773677  0.30684617    -0.25300
H683        H  0.73314519  0.60716797  0.34696139     0.07300
N684        N  0.69932897  0.60140532  0.18066203    -0.46500
H685        H  0.84177642  0.61518021  0.26353279     0.07200
C686        C  0.82042633  0.38928164  0.30843094     0.42900
C687        C  0.77748883  0.60277609  0.17099532    -0.06100
Co688      Co  0.80180588  0.50753083  0.24253502     0.73800
N689        N  0.79231474  0.60259548  0.31855277    -0.46300
C690        C  0.67604262  0.38899883  0.18983059     0.43200
N691        N  0.81667298  0.41396343  0.20195683    -0.46300
Co692      Co  0.75431004  0.50586732  0.30388015     0.73900
C693        C  0.71871377  0.40788689  0.32627283    -0.06600
C694        C  0.66782121  0.60161596  0.22041726    -0.06100
N695        N  0.77345333  0.45117172  0.19119258    -0.25700
N696        N  0.67749688  0.59966028  0.29783852    -0.46400
H697        H  0.65011454  0.40413865  0.23386174     0.07200
C698        C  0.82727660  0.41337519  0.27945476    -0.06600
Cl699      Cl  0.74721124  0.50697759  0.24953301    -0.49600
C700        C  0.81519559  0.63104263  0.30712135     0.43000
H701        H  0.76165635  0.40572609  0.15214074     0.07200
N702        N  0.79606477  0.41441344  0.31944170    -0.46300
C703        C  0.61780300  0.28508209  0.17211505    -0.01600
C704        C  0.62192336  0.27765447  0.14110648     0.07000
C705        C  0.64411290  0.30631307  0.12610189    -0.07600
C706        C  0.66241875  0.34181967  0.14143203     0.04400
C707        C  0.65819861  0.35005909  0.17259496    -0.14800
C708        C  0.63581027  0.32116626  0.18753907    -0.08200
C709        C  0.60394131  0.23937360  0.12373462     0.05300
C710        C  0.57285946  0.24677735  0.12093042    -0.09300
C711        C  0.55554468  0.21255924  0.10343776     0.00300
C712        C  0.56962797  0.17087692  0.08783685     0.00200
C713        C  0.60074368  0.16372665  0.09070554    -0.12800
C714        C  0.61780619  0.19688546  0.10889881     0.00600
C715        C  0.52364529  0.22206639  0.10138240     0.40000
C716        C  0.64928668  0.18533785  0.11309048     0.36600
C717        C  0.59589725  0.25495563  0.18864290     0.36300
C718        C  0.68501668  0.36906955  0.12422067     0.37100
N719        N  0.49806577  0.22976154  0.10000527    -0.43700
N720        N  0.67445683  0.17613015  0.11681298    -0.44200
N721        N  0.70309325  0.39045271  0.11014793    -0.41500
N722        N  0.57833279  0.23062277  0.20176084    -0.43000
H723        H  0.63247005  0.32616556  0.21146798     0.13200
H724        H  0.64722709  0.30060227  0.10214551     0.09700
H725        H  0.56219113  0.27960551  0.13223871     0.10800
H726        H  0.61168098  0.13113837  0.07943063     0.16600
C727        C  0.63023504  0.22082883  0.42000117    -0.01600
C728        C  0.62371928  0.23226546  0.38975948     0.07000
C729        C  0.59978904  0.20626785  0.37577262    -0.07600
C730        C  0.58182752  0.17055360  0.39143838     0.04400
C731        C  0.58785478  0.15948701  0.42199098    -0.14800
C732        C  0.61232828  0.18491495  0.43579864    -0.08200
C733        C  0.64092830  0.27184742  0.37219026     0.05300
C734        C  0.67173126  0.26420488  0.36697846    -0.09300
C735        C  0.68813741  0.29961898  0.34931962     0.00300
C736        C  0.67363002  0.34347885  0.33642783     0.00200
C737        C  0.64277656  0.35065493  0.34128860    -0.12800
C738        C  0.62648337  0.31571997  0.35921106     0.00600
C739        C  0.71943849  0.28872935  0.34356510     0.40000
C740        C  0.59509981  0.32650574  0.36465611     0.36600
C741        C  0.65472772  0.24617885  0.43552629     0.36300
C742        C  0.55751494  0.14616669  0.37518809     0.37100
N743        N  0.74450046  0.28007859  0.33876247    -0.43700
N744        N  0.56995477  0.33496716  0.36910226    -0.44200
N745        N  0.53808566  0.12686351  0.36194653    -0.41500
N746        N  0.67442117  0.26620030  0.44801372    -0.43000
H747        H  0.61750641  0.17726958  0.45907832     0.12600
H748        H  0.59498965  0.21427109  0.35238772     0.09700
H749        H  0.68284796  0.23000899  0.37629997     0.10800
H750        H  0.63147813  0.38442691  0.33167473     0.16600
C751        C  0.61849456  0.73502786  0.17736857    -0.01600
C752        C  0.62153507  0.74291037  0.14627280     0.07000
C753        C  0.64242276  0.71312184  0.13012276    -0.07600
C754        C  0.66011986  0.67523752  0.14428855     0.04400
C755        C  0.65704030  0.66658315  0.17551475    -0.14800
C756        C  0.63608203  0.69689652  0.19167199    -0.08200
C757        C  0.60377122  0.78261374  0.12981575     0.05300
C758        C  0.61879865  0.82610428  0.11784480    -0.09300
C759        C  0.60378982  0.86198101  0.09949173     0.00300
C760        C  0.57281447  0.85553602  0.09373957     0.00200
C761        C  0.55764031  0.81237391  0.10615273    -0.12800
C762        C  0.57307500  0.77518513  0.12345273     0.00600
C763        C  0.62083541  0.90485653  0.08689849     0.40000
C764        C  0.55769065  0.72790594  0.13258108     0.36600
C765        C  0.59822149  0.76661122  0.19513996     0.36300
C766        C  0.68059833  0.64542481  0.12579883     0.37100
N767        N  0.63464467  0.93884512  0.07659631    -0.43700
N768        N  0.54565739  0.68952082  0.13954488    -0.44200
N769        N  0.69690009  0.62181772  0.11069413    -0.41500
N770        N  0.58211998  0.79198684  0.20951144    -0.43000
H771        H  0.63365725  0.69148775  0.21566079     0.13200
H772        H  0.64475438  0.71939157  0.10614284     0.09700
H773        H  0.64254865  0.83121229  0.12226399     0.10800
H774        H  0.53403484  0.80655664  0.10129036     0.16600
C775        C  0.88324227  0.19043934  0.12130565    -0.01600
C776        C  0.86781672  0.23185021  0.10708786     0.07000
C777        C  0.87043414  0.23821377  0.07597358    -0.07600
C778        C  0.88858699  0.20439654  0.05899352     0.04400
C779        C  0.90411407  0.16293704  0.07324360    -0.14800
C780        C  0.90116502  0.15641377  0.10436605    -0.08200
C781        C  0.85125370  0.27168991  0.12480189     0.05300
C782        C  0.86762222  0.30407225  0.14420846    -0.09300
C783        C  0.85330280  0.34183057  0.16191122     0.00300
C784        C  0.82178270  0.34828334  0.16002053     0.00200
C785        C  0.80543579  0.31590083  0.14031227    -0.12800
C786        C  0.81987681  0.27760208  0.12288250     0.00600
C787        C  0.87185130  0.37376164  0.18122686     0.40000
C788        C  0.80203232  0.24372097  0.10398437     0.36600
C789        C  0.88109799  0.18250942  0.15330440     0.36300
C790        C  0.89260144  0.21553041  0.02751590     0.37100
N791        N  0.88687601  0.39910165  0.19669582    -0.43700
N792        N  0.78771899  0.21638708  0.08895236    -0.44200
N793        N  0.89600612  0.22492495  0.00236266    -0.41500
N794        N  0.87933823  0.17670626  0.17897414    -0.43000
H795        H  0.91287529  0.12457097  0.11552814     0.13200
H796        H  0.85914012  0.27086675  0.06513533     0.09700
H797        H  0.89183452  0.29966985  0.14552713     0.10800
H798        H  0.78123306  0.31981238  0.13881159     0.16600
C799        C  0.87411696  0.82265585  0.39014850    -0.01600
C800        C  0.88604380  0.77591384  0.37811509     0.07000
C801        C  0.91602511  0.76254207  0.38413576    -0.07600
C802        C  0.93417852  0.79531781  0.40186852     0.04400
C803        C  0.92210376  0.84193515  0.41420168    -0.14800
C804        C  0.89196981  0.85473081  0.40838806    -0.08200
C805        C  0.86720272  0.73987641  0.35991874     0.05300
C806        C  0.86724943  0.74429737  0.32858071    -0.09300
C807        C  0.84967548  0.71071232  0.31078477     0.00300
C808        C  0.83206972  0.67117622  0.32448140     0.00200
C809        C  0.83123125  0.66846086  0.35594539    -0.12800
C810        C  0.84859343  0.70220579  0.37362836     0.00600
C811        C  0.84910953  0.71942402  0.27881361     0.40000
C812        C  0.84732226  0.69692165  0.40582119     0.36600
C813        C  0.84386116  0.83912364  0.38333358     0.36300
C814        C  0.96469111  0.77934298  0.40789056     0.37100
N815        N  0.84856200  0.72691759  0.25322687    -0.43700
N816        N  0.84625103  0.69252620  0.43161685    -0.44200
N817        N  0.98911921  0.76628893  0.41268402    -0.41500
N818        N  0.81971457  0.85251716  0.37756103    -0.43000
H819        H  0.88253758  0.89070287  0.41745717     0.13200
H820        H  0.92517698  0.72635725  0.37505957     0.09700
H821        H  0.88089785  0.77441736  0.31803106     0.10800
H822        H  0.81753056  0.63886660  0.36688816     0.16600
C823        C  0.92283660  0.23449264  0.37441893    -0.01600
C824        C  0.89190732  0.24378117  0.37899187     0.07000
C825        C  0.87651232  0.21336248  0.40016024    -0.07600
C826        C  0.89117151  0.17415523  0.41660216     0.04400
C827        C  0.92216160  0.16412585  0.41185673    -0.14800
C828        C  0.93761097  0.19495725  0.39071669    -0.08200
C829        C  0.87469553  0.28306629  0.36104717     0.05300
C830        C  0.87288426  0.27677361  0.32980617    -0.09300
C831        C  0.85529192  0.31058163  0.31224380     0.00300
C832        C  0.83920125  0.35206332  0.32591492     0.00200
C833        C  0.84090975  0.35821515  0.35718201    -0.12800
C834        C  0.85838045  0.32427608  0.37474536     0.00600
C835        C  0.85262451  0.29960962  0.28059573     0.40000
C836        C  0.85925223  0.33272452  0.40676347     0.36600
C837        C  0.93997790  0.26565510  0.35350444     0.36300
C838        C  0.87329200  0.14408742  0.43743133     0.37100
N839        N  0.85031429  0.29050561  0.25527085    -0.43700
N840        N  0.85973828  0.33940743  0.43243048    -0.44200
N841        N  0.85880760  0.12013944  0.45406461    -0.41500
N842        N  0.95367712  0.29068049  0.33672992    -0.43000
H843        H  0.96138349  0.18850570  0.38694039     0.13200
H844        H  0.85263827  0.21969183  0.40348198     0.09700
H845        H  0.88459617  0.24429858  0.31919192     0.10800
H846        H  0.82868262  0.38990148  0.36797634     0.16600
C847        C  0.60825298  0.81495661  0.38080278    -0.01600
C848        C  0.62370972  0.77375774  0.39509075     0.07000
C849        C  0.62283555  0.76988788  0.42645093    -0.07600
C850        C  0.60610416  0.80585909  0.44358787     0.04400
C851        C  0.58960930  0.84605092  0.42912045    -0.14800
C852        C  0.59102759  0.85007293  0.39773995    -0.08200
C853        C  0.64045381  0.73415929  0.37729114     0.05300
C854        C  0.67178391  0.73762531  0.37551504    -0.09300
C855        C  0.68812396  0.70367664  0.35685929     0.00300
C856        C  0.67301049  0.66441612  0.34019579     0.00200
C857        C  0.64158716  0.66135987  0.34190711    -0.12800
C858        C  0.62528190  0.69585296  0.36018348     0.00600
C859        C  0.72000057  0.71244637  0.35372399     0.40000
C860        C  0.59296825  0.69150282  0.36094686     0.36600
C861        C  0.61049210  0.82258657  0.34880171     0.36300
C862        C  0.60546168  0.79938719  0.47573679     0.37100
N863        N  0.74549133  0.71988670  0.35100822    -0.43700
N864        N  0.56706167  0.68822800  0.36146314    -0.44200
N865        N  0.60506624  0.79422812  0.50151462    -0.41500
N866        N  0.61268335  0.82857930  0.32318366    -0.43000
H867        H  0.57906514  0.88136734  0.38638723     0.13200
H868        H  0.63492739  0.73838037  0.43747075     0.09700
H869        H  0.68338810  0.76813899  0.38799838     0.10800
H870        H  0.62969239  0.63156455  0.32915600     0.16600
C871        C  0.89137600  0.81500176  0.12448423    -0.01600
C872        C  0.87761530  0.77227021  0.10990408     0.07000
C873        C  0.88078235  0.76617389  0.07887602    -0.07600
C874        C  0.89720207  0.80259534  0.06208855     0.04400
C875        C  0.91113386  0.84553549  0.07662222    -0.14800
C876        C  0.90838851  0.85080737  0.10786957    -0.08200
C877        C  0.85955843  0.73367570  0.12669349     0.05300
C878        C  0.82901059  0.74382924  0.13138859    -0.09300
C879        C  0.81123780  0.70866634  0.14767146     0.00300
C880        C  0.82431721  0.66303800  0.16000531     0.00200
C881        C  0.85497606  0.65295740  0.15518754    -0.12800
C882        C  0.87253871  0.68753242  0.13826791     0.00600
C883        C  0.77997037  0.72125057  0.15227839     0.40000
C884        C  0.90369063  0.67493479  0.13274492     0.36600
C885        C  0.88759731  0.82347906  0.15629092     0.36300
C886        C  0.89978458  0.79416832  0.03017290     0.37100
N887        N  0.75487903  0.73124664  0.15591723    -0.43700
N888        N  0.92860859  0.66498018  0.12801239    -0.44200
N889        N  0.90164479  0.78737611  0.00457555    -0.41500
N890        N  0.88425877  0.83033853  0.18173070    -0.43000
H891        H  0.91875521  0.88383686  0.11921616     0.13200
H892        H  0.87022140  0.73313749  0.06779536     0.09700
H893        H  0.81910292  0.77946353  0.12238513     0.10800
H894        H  0.86511427  0.61759279  0.16426390     0.16600
C895        C  0.55600417  0.89294808  0.57483540     0.42800
N896        N  0.54707012  0.95316635  0.54258036     0.01700
C897        C  0.91704956  0.10024764  0.52797495    -0.06200
H898        H  0.90219700  0.89975075  0.51582535     0.07200
C899        C  0.96895635  0.90277805  0.92470587    -0.06500
Co900      Co  0.98952934  0.00921355  0.55513529     0.74200
N901        N  0.93963403  0.94876418  0.52751185    -0.25700
Co902      Co  0.94290718  0.00390063  0.99329333     0.74100
C903        C  0.94015904  0.87870966  0.93261503     0.42900
N904        N  0.53861027  0.94615077  0.95286419     0.01300
N905        N  0.94842262  0.94455617  0.96163347     0.01400
N906        N  0.94755890  0.10136185  0.56850350    -0.46500
H907        H  0.51152644  0.90856484  0.59960365     0.07200
N908        N  0.95734858  0.95066740  0.55115236     0.01700
N909        N  0.94757525  0.05916861  0.95931708     0.01500
C910        C  0.93856433  0.12178067  0.92825242     0.43100
N911        N  0.55643425  0.94852034  0.97646439    -0.25100
C912        C  0.52432734  0.10771073  0.57702706    -0.06100
N913        N  0.56732670  0.91789158  0.55068540    -0.46300
N914        N  0.92777605  0.09590724  0.95232983    -0.46500
C915        C  0.55272165  0.13290213  0.56939966     0.42800
N916        N  0.95583207  0.06485160  0.54901157     0.01700
N917        N  0.55549319  0.06243172  0.97378453    -0.25200
N918        N  0.52334051  0.95348859  0.56029080    -0.25700
N919        N  0.53769947  0.06050633  0.95017910     0.01300
H920        H  0.59460441  0.10840390  0.98447528     0.07200
H921        H  0.98277261  0.10555899  0.90265498     0.07300
N922        N  0.93816676  0.06294664  0.52531588    -0.25700
N923        N  0.97204752  0.94337746  0.94379408    -0.25300
N924        N  0.54559249  0.06750258  0.53989364     0.01700
C925        C  0.92787021  0.88612859  0.55992287     0.43100
C926        C  0.57750607  0.91105255  0.97397221    -0.06600
N927        N  0.97101329  0.05871726  0.94122612    -0.25300
H928        H  0.98410371  0.89318675  0.90656068     0.07300
N929        N  0.95082439  0.91434494  0.57134227    -0.46500
H930        H  0.59611647  0.90549994  0.98918370     0.07200
C931        C  0.56959120  0.12133017  0.93968615     0.42900
C932        C  0.52678639  0.91628134  0.58128155    -0.06100
Co933      Co  0.55172021  0.00798763  0.50833465     0.73800
N934        N  0.54669550  0.90897532  0.93369659    -0.46300
C935        C  0.92351517  0.12594171  0.55655161     0.43200
N936        N  0.56485930  0.10530699  0.54649882    -0.46300
Co937      Co  0.50491294  0.00214149  0.94633634     0.73900
C938        C  0.96746803  0.09712500  0.92083027    -0.06600
C939        C  0.92011622  0.90924742  0.53098635    -0.06100
N940        N  0.52189361  0.06772659  0.55765153    -0.25700
N941        N  0.92863260  0.90737318  0.95534784    -0.46400
H942        H  0.89844156  0.10616478  0.51275774     0.07200
C943        C  0.57622166  0.09981714  0.96939451    -0.06600
Cl944      Cl  0.49728650  0.00585213  0.50074365    -0.49600
C945        C  0.57081545  0.88451294  0.94564873     0.43000
H946        H  0.50891859  0.11594671  0.59524010     0.07200
N947        N  0.54547968  0.09472101  0.92925598    -0.46300
C948        C  0.80673615  0.62559547  0.67808355     0.42800
N949        N  0.79709730  0.56454380  0.70957364     0.01700
C950        C  0.66865598  0.41228861  0.71894158    -0.06200
H951        H  0.64907720  0.60844881  0.73542115     0.07200
C952        C  0.71786552  0.60013789  0.82862396    -0.06500
Co953      Co  0.74015765  0.50824961  0.69516567     0.74200
N954        N  0.68868226  0.56416658  0.72383762    -0.25700
Co955      Co  0.69253897  0.50644931  0.75666667     0.74100
C956        C  0.68930782  0.62539038  0.82164642     0.42900
N957        N  0.78662983  0.56442236  0.79919496     0.01300
N958        N  0.69721788  0.56295544  0.79021207     0.01400
N959        N  0.70010718  0.41524894  0.67921670    -0.46500
H960        H  0.76271829  0.61059314  0.65229419     0.07200
N961        N  0.70688401  0.56513401  0.70048893     0.01700
N962        N  0.69772297  0.44822924  0.78913054     0.01500
C963        C  0.69009140  0.38323373  0.81871002     0.43100
N964        N  0.80476962  0.56518333  0.77581870    -0.25100
C965        C  0.77677783  0.41328465  0.67057308    -0.06100
N966        N  0.81772232  0.59941759  0.70192672    -0.46300
N967        N  0.67814491  0.41086629  0.79579320    -0.46500
C968        C  0.80555246  0.38871585  0.67773613     0.42800
N969        N  0.70722779  0.45093881  0.69956717     0.01700
N970        N  0.80607439  0.45029958  0.77570766    -0.25200
N971        N  0.77353210  0.56520365  0.69166116    -0.25700
N972        N  0.78800666  0.44964161  0.79912920     0.01300
H973        H  0.84614782  0.40676365  0.76463285     0.07200
H974        H  0.73408943  0.39908773  0.84432391     0.07300
N975        N  0.68906834  0.45030654  0.72291397    -0.25700
N976        N  0.72082052  0.56221830  0.80802318    -0.25300
N977        N  0.79685915  0.45056985  0.70930111     0.01700
C978        C  0.67486315  0.62628073  0.69169806     0.43100
C979        C  0.82372023  0.60584925  0.77879990    -0.06600
N980        N  0.72145631  0.44773153  0.80684813    -0.25300
H981        H  0.73316470  0.60715243  0.84696932     0.07300
N982        N  0.69929831  0.60142239  0.68067390    -0.46500
H983        H  0.84177710  0.61517011  0.76354220     0.07200
C984        C  0.82040921  0.38923915  0.80840563     0.42900
C985        C  0.77748267  0.60281058  0.67100178    -0.06100
Co986      Co  0.80179885  0.50754807  0.74253408     0.73800
N987        N  0.79231913  0.60257589  0.81856477    -0.46300
C988        C  0.67603354  0.38903338  0.68982586     0.43200
N989        N  0.81667143  0.41402070  0.70193376    -0.46300
Co990      Co  0.75431051  0.50585597  0.80388212     0.73900
C991        C  0.71870998  0.40788896  0.82627907    -0.06600
C992        C  0.66779501  0.60161093  0.72043272    -0.06100
N993        N  0.77344604  0.45121946  0.69118107    -0.25700
N994        N  0.67750878  0.59967341  0.79785289    -0.46400
H995        H  0.65011162  0.40415520  0.73386322     0.07200
C996        C  0.82726467  0.41335173  0.77943458    -0.06600
Cl997      Cl  0.74720545  0.50699020  0.74953600    -0.49600
C998        C  0.81520046  0.63102453  0.80713500     0.43000
H999        H  0.76165663  0.40580645  0.65211514     0.07200
N1000       N  0.79605214  0.41437714  0.81942085    -0.46300
C1001       C  0.61778625  0.28512912  0.67211327    -0.01600
C1002       C  0.62192045  0.27766871  0.64110925     0.07000
C1003       C  0.64412525  0.30629548  0.62610718    -0.07600
C1004       C  0.66243138  0.34180473  0.64143533     0.04400
C1005       C  0.65819340  0.35008441  0.67259255    -0.14800
C1006       C  0.63579155  0.32121951  0.68753409    -0.08200
C1007       C  0.60393649  0.23938727  0.62373984     0.05300
C1008       C  0.57285888  0.24682139  0.62091306    -0.09300
C1009       C  0.55554473  0.21261089  0.60341464     0.00300
C1010       C  0.56962413  0.17090143  0.58783482     0.00200
C1011       C  0.60073509  0.16371815  0.59072751    -0.12800
C1012       C  0.61779696  0.19687388  0.60892339     0.00600
C1013       C  0.52365152  0.22215840  0.60132522     0.40000
C1014       C  0.64927209  0.18530282  0.61313441     0.36600
C1015       C  0.59586935  0.25502839  0.68864153     0.36300
C1016       C  0.68505230  0.36900543  0.62422871     0.37100
N1017       N  0.49807709  0.22988824  0.59991810    -0.43700
N1018       N  0.67443807  0.17607821  0.61687143    -0.44200
N1019       N  0.70314784  0.39034475  0.61015852    -0.41500
N1020       N  0.57829754  0.23071639  0.70176222    -0.43000
H1021       H  0.63243859  0.32624440  0.71145960     0.13200
H1022       H  0.64725214  0.30055565  0.60215447     0.09700
H1023       H  0.56219438  0.27967044  0.63220491     0.10800
H1024       H  0.61166826  0.13111024  0.57946764     0.16600
C1025       C  0.63024270  0.22079550  0.92000871    -0.01600
C1026       C  0.62371014  0.23227336  0.88977511     0.07000
C1027       C  0.59977177  0.20629283  0.87579115    -0.07600
C1028       C  0.58181703  0.17056251  0.89145273     0.04400
C1029       C  0.58785607  0.15946687  0.92199937    -0.14800
C1030       C  0.61233913  0.18487261  0.93580325    -0.08200
C1031       C  0.64091824  0.27186212  0.87220786     0.05300
C1032       C  0.67172310  0.26422871  0.86700280    -0.09300
C1033       C  0.68812992  0.29964297  0.84934509     0.00300
C1034       C  0.67362171  0.34349490  0.83644526     0.00200
C1035       C  0.64276661  0.35066395  0.84129957    -0.12800
C1036       C  0.62647213  0.31572799  0.85922099     0.00600
C1037       C  0.71943298  0.28875746  0.84359925     0.40000
C1038       C  0.59508478  0.32650260  0.86465197     0.36600
C1039       C  0.65475509  0.24609936  0.93552748     0.36300
C1040       C  0.55750223  0.14618181  0.87520272     0.37100
N1041       N  0.74449657  0.28010792  0.83880452    -0.43700
N1042       N  0.56993616  0.33495406  0.86908416    -0.44200
N1043       N  0.53807232  0.12688015  0.86196139    -0.41500
N1044       N  0.67446663  0.26607780  0.94800886    -0.43000
H1045       H  0.61752998  0.17719769  0.95907684     0.12600
H1046       H  0.59496338  0.21431543  0.85241048     0.09700
H1047       H  0.68284119  0.23003692  0.87632720     0.10800
H1048       H  0.63146701  0.38442910  0.83167923     0.16600
C1049       C  0.61845167  0.73501468  0.67737972    -0.01600
C1050       C  0.62148235  0.74287680  0.64628105     0.07000
C1051       C  0.64234897  0.71305090  0.63012673    -0.07600
C1052       C  0.66004270  0.67516308  0.64429256     0.04400
C1053       C  0.65698546  0.66654932  0.67552430    -0.14800
C1054       C  0.63603912  0.69688364  0.69168430    -0.08200
C1055       C  0.60373495  0.78260216  0.62982424     0.05300
C1056       C  0.61878282  0.82606487  0.61784499    -0.09300
C1057       C  0.60379010  0.86195620  0.59948787     0.00300
C1058       C  0.57281205  0.85555106  0.59373738     0.00200
C1059       C  0.55761821  0.81241694  0.60615844    -0.12800
C1060       C  0.57303477  0.77521677  0.62346566     0.00600
C1061       C  0.62085336  0.90480859  0.58689292     0.40000
C1062       C  0.55762490  0.72797288  0.63261020     0.36600
C1063       C  0.59819007  0.76661900  0.69515217     0.36300
C1064       C  0.68049259  0.64530076  0.62579743     0.37100
N1065       N  0.63467714  0.93877969  0.57659133    -0.43700
N1066       N  0.54556908  0.68961744  0.63958820    -0.44200
N1067       N  0.69677014  0.62165141  0.61068821    -0.41500
N1068       N  0.58209657  0.79200949  0.70952411    -0.43000
H1069       H  0.63362704  0.69149542  0.71567614     0.13200
H1070       H  0.64466831  0.71929728  0.60614341     0.09700
H1071       H  0.64253563  0.83114010  0.62226203     0.10800
H1072       H  0.53400922  0.80663232  0.60129966     0.16600
C1073       C  0.88322098  0.19045480  0.62130625    -0.01600
C1074       C  0.86781107  0.23187750  0.60708227     0.07000
C1075       C  0.87043709  0.23823130  0.57596815    -0.07600
C1076       C  0.88858374  0.20439448  0.55899448     0.04400
C1077       C  0.90409790  0.16292671  0.57325084    -0.14800
C1078       C  0.90113948  0.15641135  0.60437297    -0.08200
C1079       C  0.85125184  0.27173368  0.62478848     0.05300
C1080       C  0.86761957  0.30409688  0.64420630    -0.09300
C1081       C  0.85330167  0.34186498  0.66190391     0.00300
C1082       C  0.82178506  0.34835558  0.65999123     0.00200
C1083       C  0.80543995  0.31599547  0.64026983    -0.12800
C1084       C  0.81987813  0.27767913  0.62285070     0.00600
C1085       C  0.87184788  0.37375302  0.68124508     0.40000
C1086       C  0.80203160  0.24380428  0.60395104     0.36600
C1087       C  0.88106331  0.18252890  0.65330444     0.36300
C1088       C  0.89260485  0.21551467  0.52751612     0.37100
N1089       N  0.88687117  0.39905368  0.69673643    -0.43700
N1090       N  0.78771573  0.21647248  0.58892028    -0.44200
N1091       N  0.89601461  0.22489643  0.50236202    -0.41500
N1092       N  0.87929244  0.17672865  0.67897367    -0.43000
H1093       H  0.91283888  0.12456081  0.61553932     0.13200
H1094       H  0.85915396  0.27089062  0.56512475     0.09700
H1095       H  0.89182901  0.29966656  0.64554118     0.10800
H1096       H  0.78123965  0.31993094  0.63875442     0.16600
C1097       C  0.87412201  0.82266296  0.89015215    -0.01600
C1098       C  0.88603703  0.77589909  0.87813522     0.07000
C1099       C  0.91601075  0.76249716  0.88417168    -0.07600
C1100       C  0.93416842  0.79526438  0.90190474     0.04400
C1101       C  0.92210483  0.84190336  0.91422156    -0.14800
C1102       C  0.89197861  0.85473018  0.90839161    -0.08200
C1103       C  0.86719251  0.73987206  0.85993716     0.05300
C1104       C  0.86727052  0.74425526  0.82859786    -0.09300
C1105       C  0.84969980  0.71067127  0.81079879     0.00300
C1106       C  0.83206905  0.67116706  0.82449431     0.00200
C1107       C  0.83119807  0.66849424  0.85595891    -0.12800
C1108       C  0.84855341  0.70224488  0.87364476     0.00600
C1109       C  0.84916399  0.71935577  0.77882476     0.40000
C1110       C  0.84724295  0.69701366  0.90583894     0.36600
C1111       C  0.84387567  0.83916201  0.88332039     0.36300
C1112       C  0.96467271  0.77925984  0.90794308     0.37100
N1113       N  0.84864151  0.72683086  0.75323571    -0.43700
N1114       N  0.84613903  0.69266373  0.93163579    -0.44200
N1115       N  0.98909374  0.76617894  0.91274865    -0.41500
N1116       N  0.81973695  0.85258257  0.87753553    -0.43000
H1117       H  0.88255622  0.89071899  0.91744774     0.13200
H1118       H  0.92515323  0.72629588  0.87510740     0.09700
H1119       H  0.88094093  0.77434598  0.81804930     0.10800
H1120       H  0.81747565  0.63893019  0.86690128     0.16600
C1121       C  0.92280710  0.23443928  0.87439544    -0.01600
C1122       C  0.89187588  0.24370942  0.87896850     0.07000
C1123       C  0.87649006  0.21329248  0.90014449    -0.07600
C1124       C  0.89116007  0.17410583  0.91659339     0.04400
C1125       C  0.92215047  0.16408430  0.91184164    -0.14800
C1126       C  0.93759070  0.19491418  0.89069411    -0.08200
C1127       C  0.87465687  0.28298714  0.86102335     0.05300
C1128       C  0.87285567  0.27670904  0.82978028    -0.09300
C1129       C  0.85527192  0.31052955  0.81221604     0.00300
C1130       C  0.83917665  0.35200504  0.82588791     0.00200
C1131       C  0.84087146  0.35813657  0.85715714    -0.12800
C1132       C  0.85833591  0.32418978  0.87472159     0.00600
C1133       C  0.85262287  0.29958315  0.78056356     0.40000
C1134       C  0.85919966  0.33263135  0.90674045     0.36600
C1135       C  0.93994194  0.26562114  0.85348516     0.36300
C1136       C  0.87329254  0.14405886  0.93744271     0.37100
N1137       N  0.85032884  0.29050041  0.75523472    -0.43700
N1138       N  0.85967944  0.33931123  0.93240782    -0.44200
N1139       N  0.85881922  0.12012949  0.95409437    -0.41500
N1140       N  0.95363428  0.29066768  0.83671532    -0.43000
H1141       H  0.96136397  0.18847383  0.88691559     0.13200
H1142       H  0.85261588  0.21961223  0.90347057     0.09700
H1143       H  0.88457301  0.24424144  0.81916479     0.10800
H1144       H  0.82864088  0.38981729  0.86795255     0.16600
C1145       C  0.60827013  0.81498585  0.88080340    -0.01600
C1146       C  0.62375232  0.77381299  0.89508881     0.07000
C1147       C  0.62288527  0.76993932  0.92644880    -0.07600
C1148       C  0.60613567  0.80587872  0.94358874     0.04400
C1149       C  0.58962229  0.84605085  0.92912488    -0.14800
C1150       C  0.59103395  0.85007877  0.89774453    -0.08200
C1151       C  0.64049395  0.73421646  0.87728681     0.05300
C1152       C  0.67182542  0.73766028  0.87551722    -0.09300
C1153       C  0.68816168  0.70368823  0.85687163     0.00300
C1154       C  0.67304044  0.66443932  0.84020545     0.00200
C1155       C  0.64161654  0.66140536  0.84191208    -0.12800
C1156       C  0.62531694  0.69590903  0.86018530     0.00600
C1157       C  0.72004511  0.71240898  0.85375855     0.40000
C1158       C  0.59300373  0.69155592  0.86096069     0.36600
C1159       C  0.61048265  0.82260254  0.84879940     0.36300
C1160       C  0.60548614  0.79938254  0.97573590     0.37100
N1161       N  0.74554246  0.71980421  0.85106359    -0.43700
N1162       N  0.56709762  0.68827696  0.86148996    -0.44200
N1163       N  0.60508249  0.79420036  0.00151206    -0.41500
N1164       N  0.61264736  0.82858520  0.82317834    -0.43000
H1165       H  0.57905339  0.88135491  0.88639416     0.13200
H1166       H  0.63499033  0.73844376  0.93746564     0.09700
H1167       H  0.68343443  0.76816547  0.88800267     0.10800
H1168       H  0.62971682  0.63161261  0.82916366     0.16600
C1169       C  0.89157773  0.81479944  0.62450331    -0.01600
C1170       C  0.87768796  0.77220605  0.60991563     0.07000
C1171       C  0.88071599  0.76623861  0.57886713    -0.07600
C1172       C  0.89712723  0.80265139  0.56206603     0.04400
C1173       C  0.91118174  0.84546800  0.57660418    -0.14800
C1174       C  0.90857402  0.85060352  0.60787174    -0.08200
C1175       C  0.85961885  0.73364435  0.62671363     0.05300
C1176       C  0.82903069  0.74366519  0.63122722    -0.09300
C1177       C  0.81123582  0.70853013  0.64750540     0.00300
C1178       C  0.82433015  0.66305684  0.66001319     0.00200
C1179       C  0.85503083  0.65310536  0.65536766    -0.12800
C1180       C  0.87261940  0.68765381  0.63845811     0.00600
C1181       C  0.77992531  0.72099566  0.65191788     0.40000
C1182       C  0.90381294  0.67515931  0.63309628     0.36600
C1183       C  0.88792437  0.82317234  0.65633344     0.36300
C1184       C  0.89956478  0.79433421  0.53013025     0.37100
N1185       N  0.75479972  0.73090497  0.65539394    -0.43700
N1186       N  0.92876446  0.66528105  0.62849039    -0.44200
N1187       N  0.90130252  0.78761792  0.50451787    -0.41500
N1188       N  0.88468643  0.82995762  0.68179252    -0.43000
H1189       H  0.91903185  0.88353440  0.61922641     0.13200
H1190       H  0.87005457  0.73330629  0.56778178     0.09700
H1191       H  0.81910801  0.77918010  0.62208766     0.10800
H1192       H  0.86518542  0.61785498  0.66456882     0.16600
loop_ 
_geom_bond_atom_site_label_1 
_geom_bond_atom_site_label_2 
_geom_bond_distance 
_geom_bond_site_symmetry_2 
_ccdc_geom_bond_type 
C1           N19   1.349       .  A
C1           C38   1.458       .  S
C1          C164   1.476       .  S
N2           N19   1.323       .  A
N2           N24   1.319       .  A
N2          Co39   2.080   1_565  S
C3           N28   1.341       .  A
C3           C41   1.461       .  S
C3           H48   1.082       .  S
H4           C45   1.074       .  S
C5           N29   1.345       .  A
C5            C9   1.465       .  S
C5           H34   1.081       .  S
Co6          N14   2.076   1_545  S
Co6          N22   2.080       .  S
Co6         N620   2.080   1_545  S
Co6         N642   2.076       .  S
Co6        Cl646   2.452       .  S
N7           C45   1.339       .  A
N7           N14   1.318       .  A
N7         Co306   2.080   1_564  S
Co8          N11   2.080   1_545  S
Co8          N15   2.079       .  S
Co8         N305   2.080   1_545  S
Co8         N326   2.082       .  S
Co8        Cl944   2.446       .  S
C9           N47   1.349       .  A
C9          C207   1.482       .  S
N10          N17   1.320       .  A
N10          N40   1.324       .  A
N10         Co43   2.089   1_565  S
N11          N29   1.319       .  A
N11          N47   1.323       .  A
N12          C41   1.350       .  A
N12          N22   1.323       .  A
H13          C38   1.081       .  S
N14          N35   1.324       .  A
N15          N33   1.319       .  A
N15          N20   1.322       .  A
C16          N20   1.349       .  A
C16          C44   1.469       .  S
C16         C231   1.493       .  S
N17          C32   1.342       .  A
N17        Co337   2.085   1_565  S
C18          N46   1.338       .  A
C18          C21   1.459       .  S
C18          H52   1.083       .  S
C21          N42   1.351       .  A
C21         C116   1.476       .  S
N22          N28   1.319       .  A
N23          C49   1.341       .  A
N23          N25   1.319       .  A
N23        Co337   2.081       .  S
N24          C38   1.341       .  A
N24        Co602   2.080   1_465  S
N25          N53   1.323       .  A
N25         Co43   2.091       .  S
H26          C49   1.082       .  S
H27          C44   1.081       .  S
N28        Co306   2.082   1_554  S
N29        Co639   2.096   1_565  S
N30          N42   1.323       .  A
N30          N46   1.319       .  A
N30         Co39   2.084       .  S
C31          N35   1.349       .  A
C31          C45   1.461       .  S
C31         C279   1.476       .  S
C32          C51   1.463       .  S
C32          H36   1.081       .  S
N33          C44   1.345       .  A
N33        Co639   2.098       .  S
C37          N53   1.352       .  A
C37          C49   1.465       .  S
C37         C135   1.493       .  S
Co39        N315   2.084   1_544  S
Co39        N321   2.081   1_554  S
Co39        Cl50   2.449   1_455  S
N40          C51   1.351       .  A
C41         C183   1.478       .  S
Co43        N625   2.096   1_445  S
Co43        N629   2.098   1_455  S
Co43       Cl348   2.452   1_455  S
N46        Co602   2.076   1_455  S
Cl50       Co602   2.452       .  S
Cl50       Co902   2.445   1_554  S
Cl50       Co341   2.452   1_654  S
C51         C255   1.483       .  S
C54          N72   1.348       .  A
C54          C91   1.461       .  S
C54         C284   1.475       .  S
N55          N72   1.323       .  A
N55          N77   1.320       .  A
N55         Co92   2.077       .  S
C56          N81   1.340       .  A
C56          C94   1.463       .  S
C56         H101   1.081       .  S
H57          C98   1.082       .  S
C58          N82   1.338       .  A
C58          C62   1.458       .  S
C58          H87   1.080       .  S
Co59         N77   2.083       .  S
Co59         N67   2.084       .  S
Co59         N99   2.081       .  S
Co59         N75   2.079       .  S
Co59       Cl103   2.446       .  S
N60          C98   1.340       .  A
N60          N67   1.320       .  A
N60         Co61   2.082       .  S
Co61         N64   2.084       .  S
Co61         N81   2.080       .  S
Co61         N68   2.086       .  S
Co61       Cl103   2.456       .  S
C62         N100   1.353       .  A
C62         C260   1.481       .  S
N63          N70   1.319       .  A
N63          N93   1.323       .  A
N63         Co96   2.084       .  S
N64          N82   1.318       .  A
N64         N100   1.325       .  A
N65          C94   1.349       .  A
N65          N75   1.322       .  A
H66          C91   1.081       .  S
N67          N88   1.323       .  A
N68          N86   1.320       .  A
N68          N73   1.325       .  A
C69          N73   1.351       .  A
C69          C97   1.461       .  S
C69         C140   1.480       .  S
N70          C85   1.342       .  A
N70         Co92   2.090       .  S
C71          N99   1.340       .  A
C71          C74   1.461       .  S
C71         H105   1.081       .  S
C74          N95   1.350       .  A
C74         C188   1.483       .  S
N75          N81   1.318       .  A
N76         C102   1.342       .  A
N76          N78   1.319       .  A
N76         Co92   2.086       .  S
N77          C91   1.341       .  A
N78         N106   1.325       .  A
N78         Co96   2.083       .  S
H79         C102   1.082       .  S
H80          C97   1.081       .  S
N82         Co96   2.076       .  S
N83          N95   1.322       .  A
N83          N99   1.320       .  A
N83         Co92   2.084       .  S
C84          N88   1.350       .  A
C84          C98   1.462       .  S
C84         C159   1.485       .  S
C85         C104   1.466       .  S
C85          H89   1.080       .  S
N86          C97   1.340       .  A
N86         Co96   2.086       .  S
C90         N106   1.351       .  A
C90         C102   1.463       .  S
C90         C236   1.485       .  S
Co92       Cl103   2.452       .  S
N93         C104   1.351       .  A
C94         C111   1.485       .  S
Co96       Cl103   2.445       .  S
C104        C212   1.485       .  S
C107        C108   1.408       .  A
C107        C112   1.400       .  A
C107        C121   1.444       .  S
C108        C113   1.480       .  S
C108        C109   1.400       .  A
C109        H128   1.087       .  S
C109        C110   1.396       .  A
C110        C111   1.418       .  A
C110        C122   1.444       .  S
C111        C112   1.408       .  A
C112        H127   1.085       .  S
C113        C114   1.403       .  A
C113        C118   1.409       .  A
C114        H129   1.084       .  S
C114        C115   1.400       .  A
C115        C116   1.414       .  A
C115        C119   1.444       .  S
C116        C117   1.404       .  A
C117        H130   1.084       .  S
C117        C118   1.396       .  A
C118        C120   1.445       .  S
C119        N123   1.158   1_455  T
C120        N124   1.157       .  T
C121        N126   1.157       .  T
C122        N125   1.157       .  T
C131        C132   1.411       .  A
C131        C136   1.404       .  A
C131        C145   1.444       .  S
C132        C137   1.490       .  S
C132        C133   1.401       .  A
C133        H152   1.084       .  S
C133        C134   1.399       .  A
C134        C135   1.418       .  A
C134        C146   1.444       .  S
C135        C136   1.410       .  A
C136        H151   1.082       .  S
C137        C138   1.405       .  A
C137        C142   1.413       .  A
C138        H153   1.084       .  S
C138        C139   1.403       .  A
C139        C140   1.412       .  A
C139        C143   1.444       .  S
C140        C141   1.403       .  A
C141        H154   1.084       .  S
C141        C142   1.400       .  A
C142        C144   1.445       .  S
C143        N147   1.157       .  T
C144        N148   1.157       .  T
C145        N150   1.157       .  T
C146        N149   1.157       .  T
C155        C156   1.408       .  A
C155        C160   1.401       .  A
C155        C169   1.444       .  S
C156        C161   1.479       .  S
C156        C157   1.398       .  A
C157        H176   1.087       .  S
C157        C158   1.397       .  A
C158        C159   1.417       .  A
C158        C170   1.443       .  S
C159        C160   1.408       .  A
C160        H175   1.084       .  S
C161        C162   1.400       .  A
C161        C166   1.409       .  A
C162        H177   1.084       .  S
C162        C163   1.397       .  A
C163        C164   1.413       .  A
C163        C167   1.444       .  S
C164        C165   1.404       .  A
C165        H178   1.084       .  S
C165        C166   1.402       .  A
C166        C168   1.444       .  S
C167        N171   1.157       .  T
C168        N172   1.157       .  T
C169        N174   1.157       .  T
C170        N173   1.157       .  T
C179        C180   1.409       .  A
C179        C184   1.398       .  A
C179        C193   1.445       .  S
C180        C185   1.480       .  S
C180        C181   1.402       .  A
C181        H200   1.085       .  S
C181        C182   1.401       .  A
C182        C183   1.413       .  A
C182        C194   1.444       .  S
C183        C184   1.404       .  A
C184        H199   1.085       .  S
C185        C186   1.400       .  A
C185        C190   1.408       .  A
C186        H201   1.086       .  S
C186        C187   1.396       .  A
C187        C188   1.416       .  A
C187        C191   1.444       .  S
C188        C189   1.408       .  A
C189        H202   1.085       .  S
C189        C190   1.401       .  A
C190        C192   1.444       .  S
C191        N195   1.157       .  T
C192        N196   1.157       .  T
C193        N198   1.157       .  T
C194        N197   1.157       .  T
C203        C204   1.408       .  A
C203        C208   1.400       .  A
C203        C217   1.444       .  S
C204        C209   1.484       .  S
C204        C205   1.404       .  A
C205        H224   1.084       .  S
C205        C206   1.405       .  A
C206        C207   1.412       .  A
C206        C218   1.444       .  S
C207        C208   1.405       .  A
C208        H223   1.084       .  S
C209        C210   1.403       .  A
C209        C214   1.408       .  A
C210        H225   1.086       .  S
C210        C211   1.405       .  A
C211        C212   1.415       .  A
C211        C215   1.444       .  S
C212        C213   1.406       .  A
C213        H226   1.086       .  S
C213        C214   1.399       .  A
C214        C216   1.444       .  S
C215        N219   1.158       .  T
C216        N220   1.157       .  T
C217        N222   1.157       .  T
C218        N221   1.157       .  T
C227        C228   1.412       .  A
C227        C232   1.405       .  A
C227        C241   1.444       .  S
C228        C233   1.493       .  S
C228        C229   1.401       .  A
C229        H248   1.085       .  S
C229        C230   1.400       .  A
C230        C231   1.419       .  A
C230        C242   1.444       .  S
C231        C232   1.407       .  A
C232        H247   1.084       .  S
C233        C234   1.405       .  A
C233        C238   1.413       .  A
C234        H249   1.085       .  S
C234        C235   1.403       .  A
C235        C236   1.413       .  A
C235        C239   1.444       .  S
C236        C237   1.405       .  A
C237        H250   1.084       .  S
C237        C238   1.402       .  A
C238        C240   1.444       .  S
C239        N243   1.157       .  T
C240        N244   1.157       .  T
C241        N246   1.157       .  T
C242        N245   1.157       .  T
C251        C252   1.407       .  A
C251        C256   1.398       .  A
C251        C265   1.444       .  S
C252        C257   1.482       .  S
C252        C253   1.403       .  A
C253        H272   1.084       .  S
C253        C254   1.405       .  A
C254        C255   1.415       .  A
C254        C266   1.444       .  S
C255        C256   1.405       .  A
C256        H271   1.084       .  S
C257        C258   1.401       .  A
C257        C262   1.410       .  A
C258        H273   1.086       .  S
C258        C259   1.402       .  A
C259        C260   1.415       .  A
C259        C263   1.444       .  S
C260        C261   1.404       .  A
C261        H274   1.086       .  S
C261        C262   1.399       .  A
C262        C264   1.444       .  S
C263        N267   1.158       .  T
C264        N268   1.157       .  T
C265        N270   1.157       .  T
C266        N269   1.158       .  T
C275        C276   1.407       .  A
C275        C280   1.399       .  A
C275        C289   1.444       .  S
C276        C281   1.475       .  S
C276        C277   1.399       .  A
C277        H296   1.082       .  S
C277        C278   1.399       .  A
C278        C279   1.414       .  A
C278        C290   1.444       .  S
C279        C280   1.405       .  A
C280        H295   1.084       .  S
C281        C282   1.400       .  A
C281        C286   1.407       .  A
C282        H297   1.086       .  S
C282        C283   1.399       .  A
C283        C284   1.411       .  A
C283        C287   1.443       .  S
C284        C285   1.406       .  A
C285        H298   1.085       .  S
C285        C286   1.399       .  A
C286        C288   1.445       .  S
C287        N291   1.157       .  T
C288        N292   1.157       .  T
C289        N294   1.157       .  T
C290        N293   1.157       .  T
C299        N317   1.349       .  A
C299        C336   1.458       .  S
C299        C462   1.476       .  S
N300        N317   1.323       .  A
N300        N322   1.319       .  A
N300       Co337   2.080   1_565  S
C301        N326   1.341       .  A
C301        C339   1.461       .  S
C301        H346   1.082       .  S
H302        C343   1.074       .  S
C303        N327   1.345       .  A
C303        C307   1.465       .  S
C303        H332   1.081       .  S
Co304       N918   2.080   1_545  S
Co304       N312   2.076   1_545  S
Co304       N940   2.076       .  S
Co304       N320   2.081       .  S
Co304      Cl944   2.452       .  S
N305        C343   1.339       .  A
N305        N312   1.318       .  A
Co306       N309   2.080   1_545  S
Co306       N313   2.079       .  S
Co306      Cl646   2.445   1_556  S
C307        N345   1.349       .  A
C307        C505   1.482       .  S
N308        N315   1.320       .  A
N308        N338   1.324       .  A
N308       Co341   2.089   1_565  S
N309        N327   1.319       .  A
N309        N345   1.323       .  A
N310        C339   1.350       .  A
N310        N320   1.323       .  A
H311        C336   1.081       .  S
N312        N333   1.324       .  A
N313        N331   1.319       .  A
N313        N318   1.322       .  A
C314        N318   1.349       .  A
C314        C342   1.469       .  S
C314        C529   1.493       .  S
N315        C330   1.342       .  A
C316        N344   1.338       .  A
C316        C319   1.459       .  S
C316        H350   1.083       .  S
C319        N340   1.351       .  A
C319        C414   1.476       .  S
N320        N326   1.319       .  A
N321        C347   1.341       .  A
N321        N323   1.319       .  A
N322        C336   1.341       .  A
N322       Co900   2.080   1_465  S
N323        N351   1.323       .  A
N323       Co341   2.091       .  S
H324        C347   1.082       .  S
H325        C342   1.081       .  S
N327       Co937   2.096   1_565  S
N328        N340   1.323       .  A
N328        N344   1.319       .  A
N328       Co337   2.084       .  S
C329        N333   1.349       .  A
C329        C343   1.461       .  S
C329        C577   1.476       .  S
C330        C349   1.463       .  S
C330        H334   1.081       .  S
N331        C342   1.345       .  A
N331       Co937   2.098       .  S
C335        N351   1.352       .  A
C335        C347   1.465       .  S
C335        C433   1.493       .  S
Co337      Cl348   2.449   1_455  S
N338        C349   1.351       .  A
C339        C481   1.478       .  S
Co341       N923   2.096   1_445  S
Co341       N927   2.098   1_455  S
N344       Co900   2.076   1_455  S
Cl348      Co900   2.452       .  S
Cl348      Co604   2.446       .  S
C349        C553   1.483       .  S
C352        N370   1.348       .  A
C352        C389   1.461       .  S
C352        C582   1.475       .  S
N353        N370   1.323       .  A
N353        N375   1.320       .  A
N353       Co390   2.077       .  S
C354        N379   1.340       .  A
C354        C392   1.463       .  S
C354        H399   1.081       .  S
H355        C396   1.082       .  S
C356        N380   1.338       .  A
C356        C360   1.458       .  S
C356        H385   1.080       .  S
Co357       N375   2.083       .  S
Co357       N365   2.084       .  S
Co357       N397   2.081       .  S
Co357       N373   2.079       .  S
Co357      Cl401   2.446       .  S
N358        C396   1.340       .  A
N358        N365   1.320       .  A
N358       Co359   2.082       .  S
Co359       N362   2.084       .  S
Co359       N379   2.080       .  S
Co359       N366   2.086       .  S
Co359      Cl401   2.456       .  S
C360        N398   1.353       .  A
C360        C558   1.481       .  S
N361        N368   1.319       .  A
N361        N391   1.323       .  A
N361       Co394   2.084       .  S
N362        N380   1.318       .  A
N362        N398   1.325       .  A
N363        C392   1.349       .  A
N363        N373   1.322       .  A
H364        C389   1.081       .  S
N365        N386   1.323       .  A
N366        N384   1.320       .  A
N366        N371   1.325       .  A
C367        N371   1.351       .  A
C367        C395   1.461       .  S
C367        C438   1.480       .  S
N368        C383   1.342       .  A
N368       Co390   2.089       .  S
C369        N397   1.340       .  A
C369        C372   1.461       .  S
C369        H403   1.081       .  S
C372        N393   1.350       .  A
C372        C486   1.483       .  S
N373        N379   1.318       .  A
N374        C400   1.342       .  A
N374        N376   1.319       .  A
N374       Co390   2.086       .  S
N375        C389   1.341       .  A
N376        N404   1.325       .  A
N376       Co394   2.083       .  S
H377        C400   1.082       .  S
H378        C395   1.081       .  S
N380       Co394   2.076       .  S
N381        N393   1.322       .  A
N381        N397   1.320       .  A
N381       Co390   2.084       .  S
C382        N386   1.350       .  A
C382        C396   1.462       .  S
C382        C457   1.485       .  S
C383        C402   1.466       .  S
C383        H387   1.080       .  S
N384        C395   1.340       .  A
N384       Co394   2.086       .  S
C388        N404   1.351       .  A
C388        C400   1.464       .  S
C388        C534   1.485       .  S
Co390      Cl401   2.452       .  S
N391        C402   1.351       .  A
C392        C409   1.485       .  S
Co394      Cl401   2.445       .  S
C402        C510   1.486       .  S
C405        C406   1.408       .  A
C405        C410   1.400       .  A
C405        C419   1.444       .  S
C406        C411   1.480       .  S
C406        C407   1.400       .  A
C407        H426   1.087       .  S
C407        C408   1.396       .  A
C408        C409   1.418       .  A
C408        C420   1.444       .  S
C409        C410   1.408       .  A
C410        H425   1.085       .  S
C411        C412   1.403       .  A
C411        C416   1.409       .  A
C412        H427   1.084       .  S
C412        C413   1.400       .  A
C413        C414   1.414       .  A
C413        C417   1.444       .  S
C414        C415   1.404       .  A
C415        H428   1.084       .  S
C415        C416   1.396       .  A
C416        C418   1.445       .  S
C417        N421   1.158   1_455  T
C418        N422   1.157       .  T
C419        N424   1.157       .  T
C420        N423   1.157       .  T
C429        C430   1.411       .  A
C429        C434   1.404       .  A
C429        C443   1.444       .  S
C430        C435   1.490       .  S
C430        C431   1.401       .  A
C431        H450   1.084       .  S
C431        C432   1.399       .  A
C432        C433   1.418       .  A
C432        C444   1.444       .  S
C433        C434   1.410       .  A
C434        H449   1.082       .  S
C435        C436   1.405       .  A
C435        C440   1.413       .  A
C436        H451   1.084       .  S
C436        C437   1.403       .  A
C437        C438   1.412       .  A
C437        C441   1.444       .  S
C438        C439   1.403       .  A
C439        H452   1.084       .  S
C439        C440   1.400       .  A
C440        C442   1.445       .  S
C441        N445   1.157       .  T
C442        N446   1.157       .  T
C443        N448   1.157       .  T
C444        N447   1.157       .  T
C453        C454   1.408       .  A
C453        C458   1.401       .  A
C453        C467   1.444       .  S
C454        C459   1.479       .  S
C454        C455   1.398       .  A
C455        H474   1.087       .  S
C455        C456   1.397       .  A
C456        C457   1.417       .  A
C456        C468   1.443       .  S
C457        C458   1.408       .  A
C458        H473   1.084       .  S
C459        C460   1.400       .  A
C459        C464   1.409       .  A
C460        H475   1.084       .  S
C460        C461   1.397       .  A
C461        C462   1.413       .  A
C461        C465   1.444       .  S
C462        C463   1.404       .  A
C463        H476   1.084       .  S
C463        C464   1.402       .  A
C464        C466   1.444       .  S
C465        N469   1.157       .  T
C466        N470   1.157       .  T
C467        N472   1.157       .  T
C468        N471   1.157       .  T
C477        C478   1.409       .  A
C477        C482   1.398       .  A
C477        C491   1.445       .  S
C478        C483   1.480       .  S
C478        C479   1.402       .  A
C479        H498   1.085       .  S
C479        C480   1.401       .  A
C480        C481   1.413       .  A
C480        C492   1.444       .  S
C481        C482   1.404       .  A
C482        H497   1.085       .  S
C483        C484   1.400       .  A
C483        C488   1.408       .  A
C484        H499   1.086       .  S
C484        C485   1.396       .  A
C485        C486   1.416       .  A
C485        C489   1.444       .  S
C486        C487   1.408       .  A
C487        H500   1.085       .  S
C487        C488   1.401       .  A
C488        C490   1.444       .  S
C489        N493   1.157       .  T
C490        N494   1.157       .  T
C491        N496   1.157       .  T
C492        N495   1.157       .  T
C501        C502   1.408       .  A
C501        C506   1.400       .  A
C501        C515   1.444       .  S
C502        C507   1.484       .  S
C502        C503   1.404       .  A
C503        H522   1.084       .  S
C503        C504   1.405       .  A
C504        C505   1.412       .  A
C504        C516   1.444       .  S
C505        C506   1.405       .  A
C506        H521   1.084       .  S
C507        C508   1.402       .  A
C507        C512   1.408       .  A
C508        H523   1.086       .  S
C508        C509   1.405       .  A
C509        C510   1.415       .  A
C509        C513   1.444       .  S
C510        C511   1.406       .  A
C511        H524   1.086       .  S
C511        C512   1.399       .  A
C512        C514   1.444       .  S
C513        N517   1.158       .  T
C514        N518   1.157       .  T
C515        N520   1.157       .  T
C516        N519   1.157       .  T
C525        C526   1.412       .  A
C525        C530   1.405       .  A
C525        C539   1.444       .  S
C526        C531   1.493       .  S
C526        C527   1.401       .  A
C527        H546   1.085       .  S
C527        C528   1.400       .  A
C528        C529   1.419       .  A
C528        C540   1.444       .  S
C529        C530   1.407       .  A
C530        H545   1.084       .  S
C531        C532   1.405       .  A
C531        C536   1.413       .  A
C532        H547   1.085       .  S
C532        C533   1.403       .  A
C533        C534   1.413       .  A
C533        C537   1.444       .  S
C534        C535   1.405       .  A
C535        H548   1.084       .  S
C535        C536   1.402       .  A
C536        C538   1.444       .  S
C537        N541   1.157       .  T
C538        N542   1.157       .  T
C539        N544   1.157       .  T
C540        N543   1.157       .  T
C549        C550   1.407       .  A
C549        C554   1.398       .  A
C549        C563   1.444       .  S
C550        C555   1.482       .  S
C550        C551   1.403       .  A
C551        H570   1.084       .  S
C551        C552   1.405       .  A
C552        C553   1.415       .  A
C552        C564   1.444       .  S
C553        C554   1.405       .  A
C554        H569   1.084       .  S
C555        C556   1.401       .  A
C555        C560   1.410       .  A
C556        H571   1.086       .  S
C556        C557   1.402       .  A
C557        C558   1.415       .  A
C557        C561   1.444       .  S
C558        C559   1.404       .  A
C559        H572   1.086       .  S
C559        C560   1.399       .  A
C560        C562   1.444       .  S
C561        N565   1.158       .  T
C562        N566   1.157       .  T
C563        N568   1.157       .  T
C564        N567   1.158   1_556  T
C573        C574   1.407       .  A
C573        C578   1.399       .  A
C573        C587   1.444       .  S
C574        C579   1.475       .  S
C574        C575   1.399       .  A
C575        H594   1.082       .  S
C575        C576   1.399       .  A
C576        C577   1.414       .  A
C576        C588   1.444       .  S
C577        C578   1.405       .  A
C578        H593   1.084       .  S
C579        C580   1.400       .  A
C579        C584   1.407       .  A
C580        H595   1.086       .  S
C580        C581   1.399       .  A
C581        C582   1.411       .  A
C581        C585   1.443       .  S
C582        C583   1.406       .  A
C583        H596   1.085       .  S
C583        C584   1.399       .  A
C584        C586   1.445       .  S
C585        N589   1.157       .  T
C586        N590   1.157       .  T
C587        N592   1.157       .  T
C588        N591   1.157       .  T
C597        N615   1.349       .  A
C597        C634   1.458       .  S
C597        C760   1.476       .  S
N598        N615   1.323       .  A
N598        N620   1.319       .  A
N598       Co635   2.080   1_565  S
C599        N624   1.341       .  A
C599        C637   1.461       .  S
C599        H644   1.082       .  S
H600        C641   1.074       .  S
C601        N625   1.345       .  A
C601        C605   1.465       .  S
C601        H630   1.081       .  S
Co602       N610   2.076   1_545  S
Co602       N618   2.080       .  S
N603        C641   1.339       .  A
N603        N610   1.318       .  A
N603       Co902   2.080   1_564  S
Co604       N901   2.080   1_545  S
Co604       N607   2.080   1_545  S
Co604       N922   2.082       .  S
Co604       N611   2.079       .  S
C605        N643   1.349       .  A
C605        C803   1.482       .  S
N606        N613   1.320       .  A
N606        N636   1.324       .  A
N606       Co639   2.089   1_565  S
N607        N625   1.319       .  A
N607        N643   1.323       .  A
N608        C637   1.350       .  A
N608        N618   1.323       .  A
H609        C634   1.081       .  S
N610        N631   1.324       .  A
N611        N629   1.319       .  A
N611        N616   1.322       .  A
C612        N616   1.349       .  A
C612        C640   1.469       .  S
C612        C827   1.493       .  S
N613        C628   1.342       .  A
N613       Co933   2.085   1_565  S
C614        N642   1.338       .  A
C614        C617   1.459       .  S
C614        H648   1.083       .  S
C617        N638   1.351       .  A
C617        C712   1.476       .  S
N618        N624   1.319       .  A
N619        C645   1.341       .  A
N619        N621   1.319       .  A
N619       Co933   2.081       .  S
N620        C634   1.341       .  A
N621        N649   1.323       .  A
N621       Co639   2.091       .  S
H622        C645   1.082       .  S
H623        C640   1.081       .  S
N624       Co902   2.082   1_554  S
N626        N638   1.323       .  A
N626        N642   1.319       .  A
N626       Co635   2.084       .  S
C627        N631   1.349       .  A
C627        C641   1.461       .  S
C627        C875   1.476       .  S
C628        C647   1.463       .  S
C628        H632   1.081       .  S
N629        C640   1.345       .  A
C633        N649   1.352       .  A
C633        C645   1.465       .  S
C633        C731   1.493       .  S
Co635       N911   2.084   1_544  S
Co635       N917   2.081   1_554  S
Co635      Cl646   2.449       .  S
N636        C647   1.351       .  A
C637        C779   1.478       .  S
Co639      Cl944   2.452       .  S
Cl646      Co937   2.452   1_554  S
C647        C851   1.483       .  S
C650        N668   1.348       .  A
C650        C687   1.461       .  S
C650        C880   1.475       .  S
N651        N668   1.323       .  A
N651        N673   1.320       .  A
N651       Co688   2.077       .  S
C652        N677   1.340       .  A
C652        C690   1.463       .  S
C652        H697   1.081       .  S
H653        C694   1.082       .  S
C654        N678   1.338       .  A
C654        C658   1.458       .  S
C654        H683   1.080       .  S
Co655       N673   2.083       .  S
Co655       N663   2.084       .  S
Co655       N695   2.081       .  S
Co655       N671   2.079       .  S
Co655      Cl699   2.446       .  S
N656        C694   1.340       .  A
N656        N663   1.320       .  A
N656       Co657   2.082       .  S
Co657       N660   2.084       .  S
Co657       N677   2.080       .  S
Co657       N664   2.086       .  S
Co657      Cl699   2.456       .  S
C658        N696   1.353       .  A
C658        C856   1.481       .  S
N659        N666   1.319       .  A
N659        N689   1.323       .  A
N659       Co692   2.084       .  S
N660        N678   1.318       .  A
N660        N696   1.325       .  A
N661        C690   1.349       .  A
N661        N671   1.322       .  A
H662        C687   1.081       .  S
N663        N684   1.323       .  A
N664        N682   1.320       .  A
N664        N669   1.325       .  A
C665        N669   1.351       .  A
C665        C693   1.461       .  S
C665        C736   1.480       .  S
N666        C681   1.342       .  A
N666       Co688   2.090       .  S
C667        N695   1.340       .  A
C667        C670   1.461       .  S
C667        H701   1.081       .  S
C670        N691   1.350       .  A
C670        C784   1.483       .  S
N671        N677   1.318       .  A
N672        C698   1.342       .  A
N672        N674   1.319       .  A
N672       Co688   2.086       .  S
N673        C687   1.341       .  A
N674        N702   1.325       .  A
N674       Co692   2.083       .  S
H675        C698   1.082       .  S
H676        C693   1.081       .  S
N678       Co692   2.076       .  S
N679        N691   1.322       .  A
N679        N695   1.320       .  A
N679       Co688   2.084       .  S
C680        N684   1.350       .  A
C680        C694   1.462       .  S
C680        C755   1.485       .  S
C681        C700   1.466       .  S
C681        H685   1.080       .  S
N682        C693   1.340       .  A
N682       Co692   2.086       .  S
C686        N702   1.351       .  A
C686        C698   1.463       .  S
C686        C832   1.485       .  S
Co688      Cl699   2.452       .  S
N689        C700   1.351       .  A
C690        C707   1.485       .  S
Co692      Cl699   2.445       .  S
C700        C808   1.486       .  S
C703        C704   1.408       .  A
C703        C708   1.400       .  A
C703        C717   1.444       .  S
C704        C709   1.480       .  S
C704        C705   1.400       .  A
C705        H724   1.087       .  S
C705        C706   1.396       .  A
C706        C707   1.418       .  A
C706        C718   1.444       .  S
C707        C708   1.408       .  A
C708        H723   1.085       .  S
C709        C710   1.403       .  A
C709        C714   1.409       .  A
C710        H725   1.084       .  S
C710        C711   1.400       .  A
C711        C712   1.414       .  A
C711        C715   1.444       .  S
C712        C713   1.404       .  A
C713        H726   1.084       .  S
C713        C714   1.396       .  A
C714        C716   1.445       .  S
C715        N719   1.158       .  T
C716        N720   1.157       .  T
C717        N722   1.157       .  T
C718        N721   1.157       .  T
C727        C728   1.411       .  A
C727        C732   1.404       .  A
C727        C741   1.444       .  S
C728        C733   1.490       .  S
C728        C729   1.401       .  A
C729        H748   1.084       .  S
C729        C730   1.399       .  A
C730        C731   1.418       .  A
C730        C742   1.444       .  S
C731        C732   1.410       .  A
C732        H747   1.082       .  S
C733        C734   1.405       .  A
C733        C738   1.413       .  A
C734        H749   1.084       .  S
C734        C735   1.403       .  A
C735        C736   1.412       .  A
C735        C739   1.444       .  S
C736        C737   1.403       .  A
C737        H750   1.084       .  S
C737        C738   1.400       .  A
C738        C740   1.445       .  S
C739        N743   1.157       .  T
C740        N744   1.157       .  T
C741        N746   1.157       .  T
C742        N745   1.157       .  T
C751        C752   1.408       .  A
C751        C756   1.401       .  A
C751        C765   1.444       .  S
C752        C757   1.479       .  S
C752        C753   1.398       .  A
C753        H772   1.087       .  S
C753        C754   1.397       .  A
C754        C755   1.417       .  A
C754        C766   1.443       .  S
C755        C756   1.408       .  A
C756        H771   1.084       .  S
C757        C758   1.400       .  A
C757        C762   1.409       .  A
C758        H773   1.084       .  S
C758        C759   1.397       .  A
C759        C760   1.413       .  A
C759        C763   1.444       .  S
C760        C761   1.404       .  A
C761        H774   1.084       .  S
C761        C762   1.402       .  A
C762        C764   1.444       .  S
C763        N767   1.157       .  T
C764        N768   1.157       .  T
C765        N770   1.157       .  T
C766        N769   1.157       .  T
C775        C776   1.409       .  A
C775        C780   1.398       .  A
C775        C789   1.445       .  S
C776        C781   1.480       .  S
C776        C777   1.402       .  A
C777        H796   1.085       .  S
C777        C778   1.401       .  A
C778        C779   1.413       .  A
C778        C790   1.444       .  S
C779        C780   1.404       .  A
C780        H795   1.085       .  S
C781        C782   1.400       .  A
C781        C786   1.408       .  A
C782        H797   1.086       .  S
C782        C783   1.396       .  A
C783        C784   1.416       .  A
C783        C787   1.444       .  S
C784        C785   1.408       .  A
C785        H798   1.085       .  S
C785        C786   1.401       .  A
C786        C788   1.444       .  S
C787        N791   1.157       .  T
C788        N792   1.157       .  T
C789        N794   1.157       .  T
C790        N793   1.157       .  T
C799        C800   1.408       .  A
C799        C804   1.400       .  A
C799        C813   1.444       .  S
C800        C805   1.484       .  S
C800        C801   1.404       .  A
C801        H820   1.084       .  S
C801        C802   1.405       .  A
C802        C803   1.412       .  A
C802        C814   1.444       .  S
C803        C804   1.405       .  A
C804        H819   1.084       .  S
C805        C806   1.403       .  A
C805        C810   1.408       .  A
C806        H821   1.086       .  S
C806        C807   1.405       .  A
C807        C808   1.415       .  A
C807        C811   1.444       .  S
C808        C809   1.406       .  A
C809        H822   1.086       .  S
C809        C810   1.399       .  A
C810        C812   1.444       .  S
C811        N815   1.158       .  T
C812        N816   1.157       .  T
C813        N818   1.157       .  T
C814        N817   1.157       .  T
C823        C824   1.412       .  A
C823        C828   1.405       .  A
C823        C837   1.444       .  S
C824        C829   1.493       .  S
C824        C825   1.401       .  A
C825        H844   1.085       .  S
C825        C826   1.400       .  A
C826        C827   1.419       .  A
C826        C838   1.444       .  S
C827        C828   1.407       .  A
C828        H843   1.084       .  S
C829        C830   1.405       .  A
C829        C834   1.413       .  A
C830        H845   1.085       .  S
C830        C831   1.403       .  A
C831        C832   1.413       .  A
C831        C835   1.444       .  S
C832        C833   1.405       .  A
C833        H846   1.084       .  S
C833        C834   1.402       .  A
C834        C836   1.444       .  S
C835        N839   1.157       .  T
C836        N840   1.157       .  T
C837        N842   1.157       .  T
C838        N841   1.157       .  T
C847        C848   1.407       .  A
C847        C852   1.398       .  A
C847        C861   1.444       .  S
C848        C853   1.482       .  S
C848        C849   1.403       .  A
C849        H868   1.084       .  S
C849        C850   1.405       .  A
C850        C851   1.415       .  A
C850        C862   1.444       .  S
C851        C852   1.405       .  A
C852        H867   1.084       .  S
C853        C854   1.401       .  A
C853        C858   1.410       .  A
C854        H869   1.086       .  S
C854        C855   1.402       .  A
C855        C856   1.415       .  A
C855        C859   1.444       .  S
C856        C857   1.404       .  A
C857        H870   1.086       .  S
C857        C858   1.399       .  A
C858        C860   1.444       .  S
C859        N863   1.158       .  T
C860        N864   1.157       .  T
C861        N866   1.157       .  T
C862        N865   1.158       .  T
C871        C872   1.407       .  A
C871        C876   1.399       .  A
C871        C885   1.444       .  S
C872        C877   1.475       .  S
C872        C873   1.399       .  A
C873        H892   1.082       .  S
C873        C874   1.399       .  A
C874        C875   1.414       .  A
C874        C886   1.444       .  S
C875        C876   1.405       .  A
C876        H891   1.084       .  S
C877        C878   1.400       .  A
C877        C882   1.407       .  A
C878        H893   1.086       .  S
C878        C879   1.399       .  A
C879        C880   1.411       .  A
C879        C883   1.443       .  S
C880        C881   1.406       .  A
C881        H894   1.085       .  S
C881        C882   1.399       .  A
C882        C884   1.445       .  S
C883        N887   1.157       .  T
C884        N888   1.157       .  T
C885        N890   1.157       .  T
C886        N889   1.157       .  T
C895        N913   1.349       .  A
C895        C932   1.458       .  S
C895       C1058   1.476       .  S
N896        N913   1.323       .  A
N896        N918   1.319       .  A
N896       Co933   2.080   1_565  S
C897        N922   1.341       .  A
C897        C935   1.461       .  S
C897        H942   1.082       .  S
H898        C939   1.074       .  S
C899        N923   1.345       .  A
C899        C903   1.465       .  S
C899        H928   1.081       .  S
Co900       N908   2.076   1_545  S
Co900       N916   2.081       .  S
N901        C939   1.339       .  A
N901        N908   1.318       .  A
Co902       N905   2.080   1_545  S
Co902       N909   2.079       .  S
C903        N941   1.349       .  A
C903       C1101   1.482       .  S
N904        N911   1.320       .  A
N904        N934   1.324       .  A
N904       Co937   2.089   1_565  S
N905        N923   1.319       .  A
N905        N941   1.323       .  A
N906        C935   1.350       .  A
N906        N916   1.323       .  A
H907        C932   1.081       .  S
N908        N929   1.324       .  A
N909        N927   1.319       .  A
N909        N914   1.322       .  A
C910        N914   1.349       .  A
C910        C938   1.469       .  S
C910       C1125   1.493       .  S
N911        C926   1.342       .  A
C912        N940   1.338       .  A
C912        C915   1.459       .  S
C912        H946   1.083       .  S
C915        N936   1.351       .  A
C915       C1010   1.476       .  S
N916        N922   1.319       .  A
N917        C943   1.341       .  A
N917        N919   1.319       .  A
N918        C932   1.341       .  A
N919        N947   1.323       .  A
N919       Co937   2.091       .  S
H920        C943   1.082       .  S
H921        C938   1.081       .  S
N924        N936   1.323       .  A
N924        N940   1.319       .  A
N924       Co933   2.084       .  S
C925        N929   1.349       .  A
C925        C939   1.461       .  S
C925       C1173   1.476       .  S
C926        C945   1.463       .  S
C926        H930   1.081       .  S
N927        C938   1.345       .  A
C931        N947   1.352       .  A
C931        C943   1.465       .  S
C931       C1029   1.493       .  S
Co933      Cl944   2.449       .  S
N934        C945   1.351       .  A
C935       C1077   1.478       .  S
C945       C1149   1.483       .  S
C948        N966   1.348       .  A
C948        C985   1.461       .  S
C948       C1178   1.475       .  S
N949        N966   1.323       .  A
N949        N971   1.320       .  A
N949       Co986   2.077       .  S
C950        N975   1.340       .  A
C950        C988   1.463       .  S
C950        H995   1.081       .  S
H951        C992   1.082       .  S
C952        N976   1.338       .  A
C952        C956   1.458       .  S
C952        H981   1.080       .  S
Co953       N971   2.083       .  S
Co953       N961   2.084       .  S
Co953       N993   2.081       .  S
Co953       N969   2.079       .  S
Co953      Cl997   2.446       .  S
N954        C992   1.340       .  A
N954        N961   1.320       .  A
N954       Co955   2.082       .  S
Co955       N958   2.084       .  S
Co955       N975   2.080       .  S
Co955       N962   2.086       .  S
Co955      Cl997   2.456       .  S
C956        N994   1.353       .  A
C956       C1154   1.481       .  S
N957        N964   1.319       .  A
N957        N987   1.323       .  A
N957       Co990   2.084       .  S
N958        N976   1.318       .  A
N958        N994   1.325       .  A
N959        C988   1.349       .  A
N959        N969   1.322       .  A
H960        C985   1.081       .  S
N961        N982   1.323       .  A
N962        N980   1.320       .  A
N962        N967   1.325       .  A
C963        N967   1.351       .  A
C963        C991   1.461       .  S
C963       C1034   1.480       .  S
N964        C979   1.342       .  A
N964       Co986   2.089       .  S
C965        N993   1.340       .  A
C965        C968   1.461       .  S
C965        H999   1.081       .  S
C968        N989   1.350       .  A
C968       C1082   1.483       .  S
N969        N975   1.318       .  A
N970        C996   1.342       .  A
N970        N972   1.319       .  A
N970       Co986   2.086       .  S
N971        C985   1.341       .  A
N972       N1000   1.325       .  A
N972       Co990   2.083       .  S
H973        C996   1.082       .  S
H974        C991   1.081       .  S
N976       Co990   2.076       .  S
N977        N989   1.322       .  A
N977        N993   1.320       .  A
N977       Co986   2.084       .  S
C978        N982   1.350       .  A
C978        C992   1.462       .  S
C978       C1053   1.485       .  S
C979        C998   1.466       .  S
C979        H983   1.080       .  S
N980        C991   1.340       .  A
N980       Co990   2.086       .  S
C984       N1000   1.351       .  A
C984        C996   1.464       .  S
C984       C1130   1.485       .  S
Co986      Cl997   2.452       .  S
N987        C998   1.351       .  A
C988       C1005   1.485       .  S
Co990      Cl997   2.445       .  S
C998       C1106   1.486       .  S
C1001      C1002   1.408       .  A
C1001      C1006   1.400       .  A
C1001      C1015   1.444       .  S
C1002      C1007   1.480       .  S
C1002      C1003   1.400       .  A
C1003      H1022   1.087       .  S
C1003      C1004   1.396       .  A
C1004      C1005   1.418       .  A
C1004      C1016   1.444       .  S
C1005      C1006   1.408       .  A
C1006      H1021   1.085       .  S
C1007      C1008   1.403       .  A
C1007      C1012   1.409       .  A
C1008      H1023   1.084       .  S
C1008      C1009   1.400       .  A
C1009      C1010   1.414       .  A
C1009      C1013   1.444       .  S
C1010      C1011   1.404       .  A
C1011      H1024   1.084       .  S
C1011      C1012   1.396       .  A
C1012      C1014   1.445       .  S
C1013      N1017   1.158       .  T
C1014      N1018   1.157       .  T
C1015      N1020   1.157       .  T
C1016      N1019   1.157       .  T
C1025      C1026   1.411       .  A
C1025      C1030   1.404       .  A
C1025      C1039   1.444       .  S
C1026      C1031   1.490       .  S
C1026      C1027   1.401       .  A
C1027      H1046   1.084       .  S
C1027      C1028   1.399       .  A
C1028      C1029   1.418       .  A
C1028      C1040   1.444       .  S
C1029      C1030   1.410       .  A
C1030      H1045   1.082       .  S
C1031      C1032   1.405       .  A
C1031      C1036   1.413       .  A
C1032      H1047   1.084       .  S
C1032      C1033   1.403       .  A
C1033      C1034   1.412       .  A
C1033      C1037   1.444       .  S
C1034      C1035   1.403       .  A
C1035      H1048   1.084       .  S
C1035      C1036   1.400       .  A
C1036      C1038   1.445       .  S
C1037      N1041   1.157       .  T
C1038      N1042   1.157       .  T
C1039      N1044   1.157       .  T
C1040      N1043   1.157       .  T
C1049      C1050   1.408       .  A
C1049      C1054   1.401       .  A
C1049      C1063   1.444       .  S
C1050      C1055   1.479       .  S
C1050      C1051   1.398       .  A
C1051      H1070   1.087       .  S
C1051      C1052   1.397       .  A
C1052      C1053   1.417       .  A
C1052      C1064   1.443       .  S
C1053      C1054   1.408       .  A
C1054      H1069   1.084       .  S
C1055      C1056   1.400       .  A
C1055      C1060   1.409       .  A
C1056      H1071   1.084       .  S
C1056      C1057   1.397       .  A
C1057      C1058   1.413       .  A
C1057      C1061   1.444       .  S
C1058      C1059   1.404       .  A
C1059      H1072   1.084       .  S
C1059      C1060   1.402       .  A
C1060      C1062   1.444       .  S
C1061      N1065   1.157       .  T
C1062      N1066   1.157       .  T
C1063      N1068   1.157       .  T
C1064      N1067   1.157       .  T
C1073      C1074   1.409       .  A
C1073      C1078   1.398       .  A
C1073      C1087   1.445       .  S
C1074      C1079   1.480       .  S
C1074      C1075   1.402       .  A
C1075      H1094   1.085       .  S
C1075      C1076   1.401       .  A
C1076      C1077   1.413       .  A
C1076      C1088   1.444       .  S
C1077      C1078   1.404       .  A
C1078      H1093   1.085       .  S
C1079      C1080   1.400       .  A
C1079      C1084   1.408       .  A
C1080      H1095   1.086       .  S
C1080      C1081   1.396       .  A
C1081      C1082   1.416       .  A
C1081      C1085   1.444       .  S
C1082      C1083   1.408       .  A
C1083      H1096   1.085       .  S
C1083      C1084   1.401       .  A
C1084      C1086   1.444       .  S
C1085      N1089   1.157       .  T
C1086      N1090   1.157       .  T
C1087      N1092   1.157       .  T
C1088      N1091   1.157       .  T
C1097      C1098   1.408       .  A
C1097      C1102   1.400       .  A
C1097      C1111   1.444       .  S
C1098      C1103   1.484       .  S
C1098      C1099   1.404       .  A
C1099      H1118   1.084       .  S
C1099      C1100   1.405       .  A
C1100      C1101   1.412       .  A
C1100      C1112   1.444       .  S
C1101      C1102   1.405       .  A
C1102      H1117   1.084       .  S
C1103      C1104   1.402       .  A
C1103      C1108   1.408       .  A
C1104      H1119   1.086       .  S
C1104      C1105   1.405       .  A
C1105      C1106   1.415       .  A
C1105      C1109   1.444       .  S
C1106      C1107   1.406       .  A
C1107      H1120   1.086       .  S
C1107      C1108   1.399       .  A
C1108      C1110   1.444       .  S
C1109      N1113   1.158       .  T
C1110      N1114   1.157       .  T
C1111      N1116   1.157       .  T
C1112      N1115   1.157       .  T
C1121      C1122   1.412       .  A
C1121      C1126   1.405       .  A
C1121      C1135   1.444       .  S
C1122      C1127   1.493       .  S
C1122      C1123   1.401       .  A
C1123      H1142   1.085       .  S
C1123      C1124   1.400       .  A
C1124      C1125   1.419       .  A
C1124      C1136   1.444       .  S
C1125      C1126   1.407       .  A
C1126      H1141   1.084       .  S
C1127      C1128   1.405       .  A
C1127      C1132   1.413       .  A
C1128      H1143   1.085       .  S
C1128      C1129   1.403       .  A
C1129      C1130   1.413       .  A
C1129      C1133   1.444       .  S
C1130      C1131   1.405       .  A
C1131      H1144   1.084       .  S
C1131      C1132   1.402       .  A
C1132      C1134   1.444       .  S
C1133      N1137   1.157       .  T
C1134      N1138   1.157       .  T
C1135      N1140   1.157       .  T
C1136      N1139   1.157       .  T
C1145      C1146   1.407       .  A
C1145      C1150   1.398       .  A
C1145      C1159   1.444       .  S
C1146      C1151   1.482       .  S
C1146      C1147   1.403       .  A
C1147      H1166   1.084       .  S
C1147      C1148   1.405       .  A
C1148      C1149   1.415       .  A
C1148      C1160   1.444       .  S
C1149      C1150   1.405       .  A
C1150      H1165   1.084       .  S
C1151      C1152   1.401       .  A
C1151      C1156   1.410       .  A
C1152      H1167   1.086       .  S
C1152      C1153   1.402       .  A
C1153      C1154   1.415       .  A
C1153      C1157   1.444       .  S
C1154      C1155   1.404       .  A
C1155      H1168   1.086       .  S
C1155      C1156   1.399       .  A
C1156      C1158   1.444       .  S
C1157      N1161   1.158       .  T
C1158      N1162   1.157       .  T
C1159      N1164   1.157       .  T
C1160      N1163   1.158   1_556  T
C1169      C1170   1.407       .  A
C1169      C1174   1.399       .  A
C1169      C1183   1.444       .  S
C1170      C1175   1.475       .  S
C1170      C1171   1.399       .  A
C1171      H1190   1.082       .  S
C1171      C1172   1.399       .  A
C1172      C1173   1.414       .  A
C1172      C1184   1.444       .  S
C1173      C1174   1.405       .  A
C1174      H1189   1.084       .  S
C1175      C1176   1.400       .  A
C1175      C1180   1.407       .  A
C1176      H1191   1.086       .  S
C1176      C1177   1.399       .  A
C1177      C1178   1.411       .  A
C1177      C1181   1.443       .  S
C1178      C1179   1.406       .  A
C1179      H1192   1.085       .  S
C1179      C1180   1.399       .  A
C1180      C1182   1.445       .  S
C1181      N1185   1.157       .  T
C1182      N1186   1.157       .  T
C1183      N1188   1.157       .  T
C1184      N1187   1.157       .  T
