geometry optimzed in LAMMPS
_audit_creation_date              2020-11-30 
_audit_creation_method            'lammps2cif' 
_symmetry_space_group_name_H-M    'P1' 
_symmetry_Int_Tables_number       1 
_symmetry_cell_setting            triclinic 
loop_ 
_symmetry_equiv_pos_as_xyz 
  x,y,z 
_cell_length_a                    61.1164033 
_cell_length_b                    61.2874542564742 
_cell_length_c                    61.24803945753681 
_cell_angle_alpha                 89.96654462853495 
_cell_angle_beta                  89.87044390481155 
_cell_angle_gamma                 90.16042811935708 
loop_ 
_atom_site_label 
_atom_site_type_symbol 
_atom_site_fract_x 
_atom_site_fract_y 
_atom_site_fract_z 
_atom_site_charge 
O1          O  0.82674090  0.29408024  0.86951923    -0.85600
O2          O  0.83163256  0.33559795  0.85183947    -0.82700
C3          C  0.82912642  0.34522345  0.86977969     0.97800
O4          O  0.84481017  0.34610140  0.88307355    -0.82700
O5          O  0.88032660  0.33207888  0.90678307    -0.85400
C6          C  0.87378085  0.31606522  0.91832271     1.02300
O7          O  0.86923457  0.29806798  0.90948085    -0.78100
O8          O  0.85131276  0.27021999  0.87995242    -0.78300
C9          C  0.83146737  0.27607311  0.87835024     1.02300
O10         O  0.85699454  0.27790308  0.83801874    -0.85600
O11         O  0.86600642  0.31921553  0.82534752    -0.82700
C12         C  0.87234217  0.33874981  0.82543646     0.97800
O13         O  0.87246915  0.34972795  0.84315166    -0.82700
O14         O  0.90690681  0.33273238  0.86725693    -0.85300
C15         C  0.91811050  0.31720421  0.87494569     1.02300
O16         O  0.90878274  0.30120417  0.88422048    -0.78200
O17         O  0.88959549  0.27590436  0.85242456    -0.78300
C18         C  0.87624353  0.27062201  0.83769290     1.02300
Cr19       Cr  0.84686819  0.30710480  0.84779541     1.93700
Cr20       Cr  0.87549314  0.33826779  0.87451839     1.93200
Cr21       Cr  0.87894347  0.28818453  0.88056447     1.39100
O22         O  0.86735724  0.31123899  0.86768688    -1.23400
O23         O  0.72018100  0.12933503  0.83934667    -0.85600
O24         O  0.67873351  0.12010082  0.82685735    -0.82700
C25         C  0.65866169  0.11565639  0.82668963     0.97800
O26         O  0.64757505  0.11683307  0.84435130    -0.82700
O27         O  0.66439383  0.08303680  0.86932689    -0.85400
C28         C  0.67907464  0.07197809  0.87864337     1.02300
O29         O  0.69480986  0.08138582  0.88835918    -0.78100
O30         O  0.72185646  0.09816404  0.85653697    -0.78300
C31         C  0.72729950  0.11009884  0.84068299     1.02300
O32         O  0.70368475  0.16174941  0.86844914    -0.85600
O33         O  0.66252281  0.15624782  0.85150925    -0.82700
C34         C  0.65233330  0.15965816  0.86910222     0.97800
O35         O  0.65152522  0.14501413  0.88350544    -0.82700
O36         O  0.66435847  0.10967144  0.90843562    -0.85300
C37         C  0.68015882  0.11601165  0.92036785     1.02300
O38         O  0.69801683  0.12177743  0.91176114    -0.78200
O39         O  0.72716500  0.13820372  0.88172124    -0.78300
C40         C  0.72135842  0.15781917  0.87823507     1.02300
Cr41       Cr  0.69088316  0.14047761  0.84815339     1.93700
Cr42       Cr  0.65887785  0.11422016  0.87593212     1.93200
Cr43       Cr  0.70877285  0.11068046  0.88355613     1.39100
O44         O  0.68619949  0.12163907  0.86935161    -1.23400
O45         O  0.86534827  0.16273291  0.70443278    -0.85600
O46         O  0.84952420  0.15891460  0.66254318    -0.82700
C47         C  0.86719873  0.16277806  0.65258575     0.97800
O48         O  0.88174572  0.14822508  0.65144119    -0.82700
O49         O  0.90691812  0.11263299  0.66374497    -0.85400
C50         C  0.91846081  0.11941810  0.67955687     1.02300
O51         O  0.90953262  0.12407155  0.69755093    -0.78100
O52         O  0.87849217  0.13815869  0.72688509    -0.78300
C53         C  0.87459801  0.15793713  0.72217672     1.02300
O54         O  0.83628674  0.12902090  0.71849450    -0.85600
O55         O  0.82498858  0.12148381  0.67649652    -0.82700
C56         C  0.82566221  0.11780936  0.65634375     0.97800
O57         O  0.84361935  0.11954886  0.64592851    -0.82700
O58         O  0.86843412  0.08512972  0.66220482    -0.85300
C59         C  0.87724230  0.07388042  0.67711464     1.02300
O60         O  0.88697602  0.08315523  0.69284848    -0.78200
O61         O  0.85427393  0.09825368  0.71980654    -0.78300
C62         C  0.83816495  0.10975821  0.72545607     1.02300
Cr63       Cr  0.84572493  0.14165307  0.69004253     1.93700
Cr64       Cr  0.87464723  0.11686994  0.65778765     1.93200
Cr65       Cr  0.88133637  0.11175793  0.70752277     1.39100
O66         O  0.86732859  0.12329234  0.68513201    -1.23400
O67         O  0.67463986  0.35944462  0.80478295    -0.85600
O68         O  0.67017861  0.34247201  0.84658643    -0.82700
C69         C  0.67189935  0.35991889  0.85730217     0.97800
O70         O  0.65596401  0.37294591  0.85833205    -0.82700
O71         O  0.61956103  0.39588334  0.84416737    -0.85400
C72         C  0.62524243  0.40796834  0.82823573     1.02300
O73         O  0.63167535  0.39964263  0.81053433    -0.78100
O74         O  0.64973065  0.37034739  0.78155413    -0.78300
C75         C  0.66971933  0.36805650  0.78672170     1.02300
O76         O  0.64374381  0.32782854  0.78941571    -0.85600
O77         O  0.63604165  0.31525954  0.83087231    -0.82700
C78         C  0.63009727  0.31497657  0.85051429     0.97800
O79         O  0.62952528  0.33257932  0.86156280    -0.82700
O80         O  0.59424943  0.35560247  0.84389127    -0.85300
C81         C  0.58298023  0.36409426  0.82876616     1.02300
O82         O  0.59243646  0.37423202  0.81335574    -0.78200
O83         O  0.61144441  0.34294687  0.78752757    -0.78300
C84         C  0.62440542  0.32791560  0.78224947     1.02300
Cr85       Cr  0.65460303  0.33790185  0.81837074     1.93700
Cr86       Cr  0.62552500  0.36377212  0.85001885     1.93200
Cr87       Cr  0.62225847  0.37080922  0.80006662     1.39100
O88         O  0.63402900  0.35761019  0.82287746    -1.23400
O89         O  0.78316815  0.33048980  0.63927759    -0.85600
O90         O  0.82491152  0.31806190  0.63087305    -0.82700
C91         C  0.84506206  0.31821047  0.62676156     0.97800
O92         O  0.85585552  0.33606525  0.62759651    -0.82700
O93         O  0.83959655  0.36145004  0.59334450    -0.85400
C94         C  0.82511030  0.37083352  0.58202004     1.02300
O95         O  0.80866970  0.37956043  0.59123420    -0.78100
O96         O  0.78201121  0.34697598  0.60771035    -0.78300
C97         C  0.77647534  0.33131526  0.61984771     1.02300
O98         O  0.79883231  0.35979264  0.67179326    -0.85600
O99         O  0.84028586  0.34276450  0.66716219    -0.82700
C100        C  0.85071451  0.36019025  0.67056892     0.97800
O101        O  0.85135602  0.37474144  0.65603307    -0.82700
O102        O  0.83834314  0.39983632  0.62071120    -0.85300
C103        C  0.82216402  0.41141359  0.62670312     1.02300
O104        O  0.80425554  0.40253138  0.63179250    -0.78200
O105        O  0.77531466  0.37212214  0.64777831    -0.78300
C106        C  0.78085158  0.36890470  0.66756929     1.02300
Cr107      Cr  0.81219745  0.33942465  0.65085154     1.93700
Cr108      Cr  0.84432319  0.36749462  0.62495584     1.93200
Cr109      Cr  0.79428852  0.37425973  0.62044391     1.39100
O110        O  0.81696481  0.36051085  0.63188072    -1.23400
O111        O  0.63490502  0.19803475  0.67239909    -0.85600
O112        O  0.65090675  0.15617429  0.66897624    -0.82700
C113        C  0.63340843  0.14594948  0.67292400     0.97800
O114        O  0.61831451  0.14568387  0.65886458    -0.82700
O115        O  0.59325868  0.15856824  0.62311956    -0.85400
C116        C  0.58213320  0.17510171  0.62871428     1.02300
O117        O  0.59145114  0.19288032  0.63316275    -0.78100
O118        O  0.62266603  0.22106227  0.64783029    -0.78300
C119        C  0.62544020  0.21569316  0.66767080     1.02300
O120        O  0.66440057  0.21200790  0.63923099    -0.85600
O121        O  0.67550287  0.16959467  0.63159544    -0.82700
C122        C  0.67422571  0.14938934  0.62819314     0.97800
O123        O  0.65599931  0.13947315  0.63000309    -0.82700
O124        O  0.63151390  0.15556181  0.59564274    -0.85300
C125        C  0.62313335  0.17037516  0.58401122     1.02300
O126        O  0.61424664  0.18682942  0.59283268    -0.78200
O127        O  0.64749398  0.21303098  0.60792506    -0.78300
C128        C  0.66340976  0.21848935  0.61973755     1.02300
Cr129      Cr  0.65479047  0.18360703  0.65167356     1.93700
Cr130      Cr  0.62527802  0.15180477  0.62736430     1.93200
Cr131      Cr  0.61997862  0.20170200  0.62130082     1.39100
O132        O  0.63321049  0.17902078  0.63329421    -1.23400
O133        O  0.16374524  0.13092619  0.71658279    -0.85600
O134        O  0.17615435  0.12438982  0.67478909    -0.82700
C135        C  0.17608260  0.12047544  0.65467236     0.97800
O136        O  0.15830990  0.12156172  0.64389273    -0.82700
O137        O  0.13424105  0.08665026  0.66022828    -0.85400
C138        C  0.12539365  0.07521014  0.67500025     1.02300
O139        O  0.11438687  0.08428805  0.69000955    -0.78100
O140        O  0.14654123  0.09961027  0.71716250    -0.78300
C141        C  0.16244751  0.11134971  0.72290317     1.02300
O142        O  0.13409066  0.16404278  0.70218490    -0.85600
O143        O  0.15080415  0.16085577  0.66059463    -0.82700
C144        C  0.13343485  0.16398041  0.64995409     0.97800
O145        O  0.11923444  0.14904028  0.64863978    -0.82700
O146        O  0.09448278  0.11300768  0.66120179    -0.85300
C147        C  0.08278491  0.11986334  0.67697827     1.02300
O148        O  0.09161762  0.12485815  0.69487049    -0.78200
O149        O  0.12170235  0.13921715  0.72483670    -0.78300
C150        C  0.12500183  0.15912824  0.72001921     1.02300
Cr151      Cr  0.15459202  0.14369469  0.68809323     1.93700
Cr152      Cr  0.12698730  0.11802572  0.65540944     1.93200
Cr153      Cr  0.11952556  0.11284132  0.70503703     1.39100
O154        O  0.13361815  0.12476444  0.68281738    -1.23400
O155        O  0.29324555  0.16086986  0.86863240    -0.85600
O156        O  0.33418862  0.15720903  0.84987000    -0.82700
C157        C  0.34507106  0.16042576  0.86701700     0.97800
O158        O  0.34606978  0.14569813  0.88136483    -0.82700
O159        O  0.33406936  0.10964694  0.90615366    -0.85400
C160        C  0.31801283  0.11488983  0.91826206     1.02300
O161        O  0.29980264  0.11965441  0.90997807    -0.78100
O162        O  0.27036135  0.13609298  0.88103604    -0.78300
C163        C  0.27596037  0.15598724  0.87887438     1.02300
O164        O  0.27687885  0.12901986  0.83883671    -0.85600
O165        O  0.31848883  0.12129954  0.82484172    -0.82700
C166        C  0.33864488  0.11717657  0.82463659     0.97800
O167        O  0.34971593  0.11798925  0.84224791    -0.82700
O168        O  0.33459831  0.08318304  0.86702800    -0.85300
C169        C  0.32000243  0.07141657  0.87578911     1.02300
O170        O  0.30385630  0.08007528  0.88546588    -0.78200
O171        O  0.27666810  0.09696729  0.85424876    -0.78300
C172        C  0.27086102  0.10934095  0.83894795     1.02300
Cr173      Cr  0.30611857  0.14066381  0.84712660     1.93700
Cr174      Cr  0.33913171  0.11464982  0.87377243     1.93200
Cr175      Cr  0.28933808  0.10908236  0.88161653     1.39100
O176        O  0.31157916  0.12127327  0.86763714    -1.23400
O177        O  0.13703308  0.29058391  0.83135747    -0.85600
O178        O  0.15276922  0.33267150  0.83649976    -0.82700
C179        C  0.13477544  0.34142386  0.83189875     0.97800
O180        O  0.11997857  0.34250230  0.84625768    -0.82700
O181        O  0.09370641  0.32933253  0.88058605    -0.85400
C182        C  0.08260709  0.31300397  0.87414926     1.02300
O183        O  0.09194278  0.29514836  0.86996925    -0.78100
O184        O  0.12389260  0.26734009  0.85536175    -0.78300
C185        C  0.12757102  0.27273594  0.83565693     1.02300
O186        O  0.16556633  0.27627521  0.86512734    -0.85600
O187        O  0.17634649  0.31836098  0.87393133    -0.82700
C188        C  0.17524622  0.33831213  0.87860555     0.97800
O189        O  0.15722163  0.34853334  0.87658281    -0.82700
O190        O  0.13098465  0.33148102  0.90984412    -0.85300
C191        C  0.12219520  0.31618972  0.92072157     1.02300
O192        O  0.11373646  0.29999847  0.91099191    -0.78200
O193        O  0.14760378  0.27438097  0.89591710    -0.78300
C194        C  0.16399352  0.26938158  0.88444684     1.02300
Cr195      Cr  0.15618779  0.30485000  0.85309612     1.93700
Cr196      Cr  0.12608908  0.33606953  0.87780129     1.93200
Cr197      Cr  0.12035107  0.28601608  0.88224640     1.39100
O198        O  0.13408317  0.30898795  0.87123329    -1.23400
O199        O  0.35539941  0.32803093  0.78926570    -0.85600
O200        O  0.36363104  0.31577532  0.83045592    -0.82700
C201        C  0.37055348  0.31565375  0.84973115     0.97800
O202        O  0.37171209  0.33332088  0.86071889    -0.82700
O203        O  0.40640352  0.35670515  0.84257946    -0.85400
C204        C  0.41768120  0.36491483  0.82726847     1.02300
O205        O  0.40823225  0.37432809  0.81149505    -0.78100
O206        O  0.38831487  0.34197448  0.78731280    -0.78300
C207        C  0.37478190  0.32733917  0.78212761     1.02300
O208        O  0.32561528  0.36050992  0.80540993    -0.85600
O209        O  0.33028073  0.34327228  0.84698016    -0.82700
C210        C  0.32901472  0.36072364  0.85771734     0.97800
O211        O  0.34502980  0.37372792  0.85806048    -0.82700
O212        O  0.38068157  0.39667550  0.84232558    -0.85300
C213        C  0.37432391  0.40822738  0.82627201     1.02300
O214        O  0.36886872  0.39935702  0.80855559    -0.78200
O215        O  0.35049391  0.36955587  0.78120901    -0.78300
C216        C  0.33058106  0.36850190  0.78707883     1.02300
Cr217      Cr  0.34528380  0.33853688  0.81842301     1.93700
Cr218      Cr  0.37526001  0.36459048  0.84901904     1.93200
Cr219      Cr  0.37813842  0.37036591  0.79896509     1.39100
O220        O  0.36638060  0.35793396  0.82224641    -1.23400
O221        O  0.20211693  0.35889139  0.67349094    -0.85600
O222        O  0.16086658  0.34151779  0.66794600    -0.82700
C223        C  0.15146225  0.35905199  0.67290867     0.97800
O224        O  0.15044136  0.37421412  0.65896825    -0.82700
O225        O  0.16304456  0.40098909  0.62432327    -0.85400
C226        C  0.17919624  0.41236407  0.63088457     1.02300
O227        O  0.19714747  0.40332516  0.63519344    -0.78100
O228        O  0.22553868  0.37231099  0.64973189    -0.78300
C229        C  0.21992731  0.36847877  0.66937986     1.02300
O230        O  0.21818759  0.33118463  0.63987216    -0.85600
O231        O  0.17659571  0.31895923  0.63062885    -0.82700
C232        C  0.15644646  0.31907571  0.62660049     0.97800
O233        O  0.14552967  0.33674366  0.62849551    -0.82700
O234        O  0.16176614  0.36363790  0.59530543    -0.85300
C235        C  0.17693884  0.37244418  0.58422127     1.02300
O236        O  0.19295665  0.38159011  0.59370094    -0.78200
O237        O  0.21919822  0.34882917  0.60892151    -0.78300
C238        C  0.22485451  0.33286602  0.62048292     1.02300
Cr239      Cr  0.18905189  0.33932153  0.65165703     1.93700
Cr240      Cr  0.15701654  0.36840701  0.62726298     1.93200
Cr241      Cr  0.20697637  0.37549520  0.62266868     1.39100
O242        O  0.18432490  0.36120466  0.63362840    -1.23400
O243        O  0.32872032  0.19890421  0.63103199    -0.85600
O244        O  0.33164900  0.15651079  0.64602877    -0.82700
C245        C  0.32984989  0.14632618  0.62827784     0.97800
O246        O  0.34546941  0.14619236  0.61474782    -0.82700
O247        O  0.38313709  0.16055636  0.59333726    -0.85400
C248        C  0.37692219  0.17651550  0.58174831     1.02300
O249        O  0.37141824  0.19429123  0.59061479    -0.78100
O250        O  0.35443690  0.22208714  0.62152462    -0.78300
C251        C  0.33439864  0.21694809  0.62277940     1.02300
O252        O  0.35914740  0.21200991  0.66365309    -0.85600
O253        O  0.36601298  0.16953826  0.67443942    -0.82700
C254        C  0.37026222  0.14950688  0.67313978     0.97800
O255        O  0.37065334  0.13999999  0.65470749    -0.82700
O256        O  0.40685700  0.15791838  0.63371648    -0.85300
C257        C  0.41862845  0.17318653  0.62622925     1.02300
O258        O  0.41012942  0.18924015  0.61649203    -0.78200
O259        O  0.39177528  0.21410071  0.64914240    -0.78300
C260        C  0.37865366  0.21859736  0.66443525     1.02300
Cr261      Cr  0.34792065  0.18391262  0.65219923     1.93700
Cr262      Cr  0.37596128  0.15316237  0.62466315     1.93200
Cr263      Cr  0.38102247  0.20316669  0.62029693     1.39100
O264        O  0.36841302  0.18006645  0.63229298    -1.23400
O265        O  0.30146499  0.85402302  0.83471127    -0.85600
O266        O  0.34377875  0.83876356  0.83746691    -0.82700
C267        C  0.35293262  0.85664719  0.83293618     0.97800
O268        O  0.35494615  0.87112819  0.84739729    -0.82700
O269        O  0.34308122  0.89696538  0.88238524    -0.85400
C270        C  0.32645700  0.90791074  0.87653191     1.02300
O271        O  0.30869613  0.89845899  0.87209578    -0.78100
O272        O  0.27935726  0.86683016  0.85983266    -0.78300
C273        C  0.28369654  0.86312019  0.83988719     1.02300
O274        O  0.28896375  0.82554329  0.86955564    -0.85600
O275        O  0.33125723  0.81484795  0.87564677    -0.82700
C276        C  0.35143669  0.81579576  0.87934691     0.97800
O277        O  0.36180843  0.83367982  0.87679738    -0.82700
O278        O  0.34608004  0.85924744  0.91082571    -0.85300
C279        C  0.33180686  0.86885936  0.92226282     1.02300
O280        O  0.31550042  0.87781143  0.91324276    -0.78200
O281        O  0.28885817  0.84394946  0.90015194    -0.78300
C282        C  0.28275897  0.82776127  0.88906943     1.02300
Cr283      Cr  0.31684493  0.83495768  0.85562450     1.93700
Cr284      Cr  0.34959369  0.86466932  0.87890571     1.93200
Cr285      Cr  0.29983147  0.87072050  0.88545221     1.39100
O286        O  0.32211755  0.85688563  0.87343762    -1.23400
O287        O  0.17201554  0.70177440  0.86972323    -0.85600
O288        O  0.16973208  0.66054129  0.85185516    -0.82700
C289        C  0.17285716  0.64932641  0.86884492     0.97800
O290        O  0.15809407  0.64805368  0.88321078    -0.82700
O291        O  0.12166544  0.65949606  0.90779514    -0.85400
C292        C  0.12701871  0.67557358  0.91979454     1.02300
O293        O  0.13166873  0.69374263  0.91135099    -0.78100
O294        O  0.14635692  0.72372831  0.88170498    -0.78300
C295        C  0.16646804  0.71898167  0.87954760     1.02300
O296        O  0.13918443  0.71633392  0.83971659    -0.85600
O297        O  0.13323517  0.67449519  0.82643480    -0.82700
C298        C  0.12964828  0.65428625  0.82639182     0.97800
O299        O  0.13076757  0.64337740  0.84407534    -0.82700
O300        O  0.09541834  0.65807456  0.86834407    -0.85300
C301        C  0.08334205  0.67172904  0.87796396     1.02300
O302        O  0.09170576  0.68787100  0.88786991    -0.78200
O303        O  0.10730655  0.71559254  0.85595640    -0.78300
C304        C  0.11937635  0.72204209  0.84056976     1.02300
Cr305      Cr  0.15216149  0.68783284  0.84851946     1.93700
Cr306      Cr  0.12693664  0.65424274  0.87543736     1.93200
Cr307      Cr  0.12017794  0.70359156  0.88315111     1.39100
O308        O  0.13297308  0.68184525  0.86914799    -1.23400
O309        O  0.13776844  0.83002761  0.72080089    -0.85600
O310        O  0.13079844  0.81872083  0.67841259    -0.82700
C311        C  0.12819968  0.81970551  0.65807999     0.97800
O312        O  0.13068910  0.83770978  0.64808378    -0.82700
O313        O  0.09671689  0.86287376  0.66397673    -0.85400
C314        C  0.08531457  0.87203198  0.67852926     1.02300
O315        O  0.09444626  0.88199457  0.69421052    -0.78100
O316        O  0.10758792  0.84905382  0.72149056    -0.78300
C317        C  0.11830146  0.83247926  0.72712370     1.02300
O318        O  0.17299051  0.85762392  0.70769784    -0.85600
O319        O  0.16937513  0.84210905  0.66564265    -0.82700
C320        C  0.17382834  0.85944208  0.65543850     0.97800
O321        O  0.16002077  0.87463967  0.65432242    -0.82700
O322        O  0.12512259  0.90069554  0.66598559    -0.85300
C323        C  0.13162680  0.91202833  0.68203121     1.02300
O324        O  0.13592024  0.90312461  0.70007354    -0.78200
O325        O  0.14848288  0.87177692  0.72973989    -0.78300
C326        C  0.16827299  0.86720133  0.72533016     1.02300
Cr327      Cr  0.15144335  0.83880992  0.69271582     1.93700
Cr328      Cr  0.12850940  0.86849771  0.66007654     1.93200
Cr329      Cr  0.12249056  0.87546565  0.70968934     1.39100
O330        O  0.13409851  0.86106555  0.68751984    -1.23400
O331        O  0.32811991  0.62466652  0.80297329    -0.85600
O332        O  0.33224278  0.63904277  0.84550089    -0.82700
C333        C  0.32866930  0.62079952  0.85434872     0.97800
O334        O  0.34384481  0.60690063  0.85562764    -0.82700
O335        O  0.38021853  0.58321838  0.84228307    -0.85400
C336        C  0.37327602  0.57193098  0.82638113     1.02300
O337        O  0.36762936  0.58115881  0.80890893    -0.78100
O338        O  0.35301610  0.61220679  0.78037542    -0.78300
C339        C  0.33317626  0.61588425  0.78502765     1.02300
O340        O  0.36134396  0.65446368  0.78970761    -0.85600
O341        O  0.36903389  0.66498861  0.83212187    -0.82700
C342        C  0.37307763  0.66364322  0.85218865     0.97800
O343        O  0.37155009  0.64543153  0.86200159    -0.82700
O344        O  0.40646466  0.62245931  0.84418109    -0.85300
C345        C  0.41762764  0.61434523  0.82877021     1.02300
O346        O  0.40832576  0.60409783  0.81342442    -0.78200
O347        O  0.39230409  0.63669879  0.78710879    -0.78300
C348        C  0.38027628  0.65248469  0.78178012     1.02300
Cr349      Cr  0.34910161  0.64416827  0.81798485     1.93700
Cr350      Cr  0.37499155  0.61505791  0.84915336     1.93200
Cr351      Cr  0.37947983  0.60946275  0.79928788     1.39100
O352        O  0.36798000  0.62286398  0.82209415    -1.23400
O353        O  0.37092710  0.78399190  0.67366761    -0.85600
O354        O  0.35253255  0.82489736  0.67127644    -0.82700
C355        C  0.36938850  0.83609053  0.67532820     0.97800
O356        O  0.38404599  0.83842676  0.66096523    -0.82700
O357        O  0.40991313  0.82868926  0.62498864    -0.85400
C358        C  0.42214000  0.81317704  0.63114204     1.02300
O359        O  0.41402184  0.79489446  0.63598361    -0.78100
O360        O  0.38491172  0.76300535  0.64827800    -0.78300
C361        C  0.38077341  0.76678241  0.66822135     1.02300
O362        O  0.34291176  0.76938863  0.63929113    -0.85600
O363        O  0.32900064  0.81096992  0.63356726    -0.82700
C364        C  0.32844150  0.83127117  0.63079054     0.97800
O365        O  0.34575437  0.84266822  0.63275182    -0.82700
O366        O  0.37143198  0.82902476  0.59776086    -0.85300
C367        C  0.38108726  0.81498280  0.58612295     1.02300
O368        O  0.39222877  0.79993487  0.59486602    -0.78200
O369        O  0.36104440  0.77061639  0.60845719    -0.78300
C370        C  0.34533097  0.76346494  0.61971376     1.02300
Cr371      Cr  0.35044521  0.79788099  0.65313988     1.93700
Cr372      Cr  0.37740202  0.83274439  0.62952859     1.93200
Cr373      Cr  0.38702968  0.78374572  0.62278017     1.39100
O374        O  0.37166495  0.80480956  0.63499075    -1.23400
O375        O  0.22112632  0.65805519  0.63563809    -0.85600
O376        O  0.17891003  0.66969039  0.62795076    -0.82700
C377        C  0.15859791  0.66904279  0.62484486     0.97800
O378        O  0.14815823  0.65116282  0.62707446    -0.82700
O379        O  0.16385397  0.62477607  0.59346683    -0.85400
C380        C  0.17817941  0.61494197  0.58225386     1.02300
O381        O  0.19444060  0.60607191  0.59151927    -0.78100
O382        O  0.22212822  0.63901930  0.60543192    -0.78300
C383        C  0.22845779  0.65508737  0.61660977     1.02300
O384        O  0.20644310  0.63038428  0.67022062    -0.85600
O385        O  0.16489195  0.64680063  0.66634074    -0.82700
C386        C  0.15491919  0.62936477  0.67100200     0.97800
O387        O  0.15370383  0.61425822  0.65705857    -0.82700
O388        O  0.16550440  0.58756274  0.62238459    -0.85300
C389        C  0.18143637  0.57622750  0.62925132     1.02300
O390        O  0.19952117  0.58522717  0.63332201    -0.78200
O391        O  0.22898224  0.61631004  0.64612267    -0.78300
C392        C  0.22393347  0.62047443  0.66579097     1.02300
Cr393      Cr  0.19242710  0.64954362  0.64868343     1.93700
Cr394      Cr  0.15976389  0.61999200  0.62540974     1.93200
Cr395      Cr  0.20949120  0.61274550  0.61987837     1.39100
O396        O  0.18724368  0.62738411  0.63110533    -1.23400
O397        O  0.83281747  0.85761927  0.70707658    -0.85600
O398        O  0.83633597  0.84054422  0.66585659    -0.82700
C399        C  0.83203972  0.85837558  0.65662113     0.97800
O400        O  0.84678825  0.87265139  0.65457603    -0.82700
O401        O  0.88241256  0.89810006  0.66578985    -0.85400
C402        C  0.87670160  0.90988648  0.68189068     1.02300
O403        O  0.87216302  0.90123370  0.70005263    -0.78100
O404        O  0.85745424  0.87073946  0.72957711    -0.78300
C405        C  0.83756944  0.86747359  0.72447750     1.02300
O406        O  0.86623157  0.82881187  0.72203089    -0.85600
O407        O  0.87363496  0.81662747  0.68026937    -0.82700
C408        C  0.87754620  0.81667895  0.66013448     0.97800
O409        O  0.87554150  0.83422486  0.64912076    -0.82700
O410        O  0.90994464  0.85963687  0.66435411    -0.85300
C411        C  0.92140904  0.86861899  0.67899230     1.02300
O412        O  0.91239396  0.87839314  0.69483254    -0.78200
O413        O  0.89754048  0.84596104  0.72213667    -0.78300
C414        C  0.88596716  0.82990543  0.72789604     1.02300
Cr415      Cr  0.85359305  0.83750336  0.69335788     1.93700
Cr416      Cr  0.87818796  0.86566532  0.66032773     1.93200
Cr417      Cr  0.88401222  0.87303378  0.71000971     1.39100
O418        O  0.87208920  0.85888901  0.68787972    -1.23400
O419        O  0.86654576  0.70796242  0.83511678    -0.85600
O420        O  0.87241235  0.66520938  0.82495175    -0.82700
C421        C  0.87526945  0.64495676  0.82636989     0.97800
O422        O  0.87275186  0.63523523  0.84449314    -0.82700
O423        O  0.90773998  0.65091384  0.86877232    -0.85400
C424        C  0.91958868  0.66519959  0.87788328     1.02300
O425        O  0.91101156  0.68178798  0.88671955    -0.78100
O426        O  0.89720878  0.70874924  0.85335065    -0.78300
C427        C  0.88608904  0.71432707  0.83696260     1.02300
O428        O  0.83197280  0.69617823  0.86418827    -0.85600
O429        O  0.83395771  0.65367788  0.84940224    -0.82700
C430        C  0.82976924  0.64335205  0.86677199     0.97800
O431        O  0.84394195  0.64240416  0.88174785    -0.82700
O432        O  0.88004341  0.65418191  0.90686954    -0.85300
C433        C  0.87479522  0.67064251  0.91821307     1.02300
O434        O  0.87072448  0.68868099  0.90915085    -0.78200
O435        O  0.85735659  0.71778698  0.87753183    -0.78300
C436        C  0.83736166  0.71365036  0.87371865     1.02300
Cr437      Cr  0.85259320  0.68031478  0.84515471     1.93700
Cr438      Cr  0.87570920  0.64778150  0.87492457     1.93200
Cr439      Cr  0.88308517  0.69749155  0.88062446     1.39100
O440        O  0.87049579  0.67522071  0.86708342    -1.23400
O441        O  0.71972205  0.83055536  0.86079055    -0.85600
O442        O  0.67865676  0.81599827  0.86875904    -0.82700
C443        C  0.65883531  0.81512120  0.87421995     0.97800
O444        O  0.64725276  0.83242490  0.87455769    -0.82700
O445        O  0.66300500  0.85720768  0.90935177    -0.85400
C446        C  0.67761175  0.86648002  0.92064386     1.02300
O447        O  0.69346485  0.87617074  0.91149329    -0.78100
O448        O  0.72044240  0.84488342  0.89341526    -0.78300
C449        C  0.72638037  0.83024579  0.88024743     1.02300
O450        O  0.70269305  0.86129462  0.83027551    -0.85600
O451        O  0.66189745  0.84198656  0.83422383    -0.82700
C452        C  0.65085128  0.85913896  0.83207659     0.97800
O453        O  0.64954586  0.87249588  0.84759942    -0.82700
O454        O  0.66241141  0.89648275  0.88309407    -0.85300
C455        C  0.67825679  0.90878900  0.87759220     1.02300
O456        O  0.69660120  0.90098753  0.87246045    -0.78200
O457        O  0.72599548  0.87228927  0.85515213    -0.78300
C458        C  0.72050405  0.87045166  0.83526688     1.02300
Cr459      Cr  0.69026524  0.83902253  0.85000895     1.93700
Cr460      Cr  0.65751026  0.86418328  0.87805360     1.93200
Cr461      Cr  0.70739173  0.87251299  0.88227231     1.39100
O462        O  0.68497338  0.85867265  0.87032653    -1.23400
O463        O  0.78507503  0.63090232  0.66437589    -0.85600
O464        O  0.82684900  0.62082535  0.67573246    -0.82700
C465        C  0.84703489  0.61703626  0.67515930     0.97800
O466        O  0.85760139  0.61919262  0.65737997    -0.82700
O467        O  0.84007568  0.58593841  0.63217411    -0.85400
C468        C  0.82477766  0.57514829  0.62341226     1.02300
O469        O  0.80913370  0.58475487  0.61375106    -0.78100
O470        O  0.78203960  0.60096259  0.64528530    -0.78300
C471        C  0.77695191  0.61217288  0.66171203     1.02300
O472        O  0.80122262  0.66468359  0.63684909    -0.85600
O473        O  0.84268868  0.65830904  0.65251389    -0.82700
C474        C  0.85276124  0.66243060  0.63498060     0.97800
O475        O  0.85310255  0.64847178  0.61983056    -0.82700
O476        O  0.83994580  0.61319859  0.59421317    -0.85300
C477        C  0.82459162  0.62055357  0.58249136     1.02300
O478        O  0.80682091  0.62631704  0.59116664    -0.78200
O479        O  0.77788455  0.64192773  0.62178551    -0.78300
C480        C  0.78351207  0.66126332  0.62690766     1.02300
Cr481      Cr  0.81431556  0.64230509  0.65568873     1.93700
Cr482      Cr  0.84571810  0.61728741  0.62637569     1.93200
Cr483      Cr  0.79573695  0.61426942  0.61897271     1.39100
O484        O  0.81850234  0.62447525  0.63356192    -1.23400
O485        O  0.63274480  0.66068665  0.79369019    -0.85600
O486        O  0.65152143  0.65666560  0.83461562    -0.82700
C487        C  0.63454080  0.66063168  0.84555499     0.97800
O488        O  0.61951081  0.64657158  0.84655439    -0.82700
O489        O  0.59304846  0.61202260  0.83473427    -0.85400
C490        C  0.58125772  0.61730639  0.81850554     1.02300
O491        O  0.58974861  0.62066211  0.80004816    -0.78100
O492        O  0.61984846  0.63617229  0.77089450    -0.78300
C493        C  0.62285082  0.65603264  0.77621367     1.02300
O494        O  0.66150487  0.62807432  0.77759083    -0.85600
O495        O  0.67501424  0.61987005  0.81914958    -0.82700
C496        C  0.67518045  0.61558394  0.83925243     0.97800
O497        O  0.65754953  0.61687442  0.85044468    -0.82700
O498        O  0.63040327  0.58322667  0.83608512    -0.85300
C499        C  0.62134060  0.57160542  0.82162999     1.02300
O500        O  0.61297175  0.58037522  0.80484472    -0.78200
O501        O  0.64527869  0.59635555  0.77758673    -0.78300
C502        C  0.66070604  0.60851869  0.77136290     1.02300
Cr503      Cr  0.65349686  0.63990260  0.80672514     1.93700
Cr504      Cr  0.62563677  0.61515114  0.83991208     1.93200
Cr505      Cr  0.61807202  0.60924110  0.79008281     1.39100
O506        O  0.63225197  0.62118308  0.81230379    -1.23400
O507        O  0.67357865  0.79448082  0.64242861    -0.85600
O508        O  0.66727325  0.83643929  0.65788690    -0.82700
C509        C  0.67284650  0.84548071  0.64026393     0.97800
O510        O  0.65957920  0.84609567  0.62454627    -0.82700
O511        O  0.62603007  0.83330632  0.59694186    -0.85400
C512        C  0.63323759  0.81714942  0.58613514     1.02300
O513        O  0.63731055  0.79939792  0.59568827    -0.78100
O514        O  0.65023330  0.77136665  0.62788139    -0.78300
C515        C  0.66974027  0.77674844  0.63264232     1.02300
O516        O  0.63840836  0.77966618  0.66890330    -0.85600
O517        O  0.62851021  0.82147804  0.67923210    -0.82700
C518        C  0.62481674  0.84160782  0.67833905     0.97800
O519        O  0.62790948  0.85203487  0.66056190    -0.82700
O520        O  0.59592560  0.83538971  0.63318741    -0.85300
C521        C  0.58531866  0.82010541  0.62427414     1.02300
O522        O  0.59506910  0.80401152  0.61570472    -0.78200
O523        O  0.60845011  0.77776918  0.64967702    -0.78300
C524        C  0.61925263  0.77251883  0.66637698     1.02300
Cr525      Cr  0.65070355  0.80841517  0.66037902     1.93700
Cr526      Cr  0.62784095  0.83984038  0.62937325     1.93200
Cr527      Cr  0.62348450  0.78988123  0.62325569     1.39100
O528        O  0.63384106  0.81268621  0.63751238    -1.23400
O529        O  0.85896781  0.27302190  0.16292570    -0.85600
O530        O  0.86670066  0.31480294  0.17556302    -0.82700
C531        C  0.87171842  0.33472803  0.17527822     0.97800
O532        O  0.87025679  0.34572494  0.15769260    -0.82700
O533        O  0.90477016  0.33020291  0.13307299    -0.85400
C534        C  0.91621148  0.31521413  0.12475207     1.02300
O535        O  0.90723126  0.29957319  0.11466358    -0.78100
O536        O  0.89091811  0.27241844  0.14697204    -0.78300
C537        C  0.87855430  0.26664712  0.16250728     1.02300
O538        O  0.82672464  0.28805794  0.13300111    -0.85600
O539        O  0.83049167  0.32964339  0.15061371    -0.82700
C540        C  0.82715637  0.34007659  0.13322834     0.97800
O541        O  0.84199330  0.34126852  0.11893370    -0.82700
O542        O  0.87782019  0.32911067  0.09408638    -0.85300
C543        C  0.87152051  0.31327352  0.08227046     1.02300
O544        O  0.86726966  0.29499691  0.09083170    -0.78200
O545        O  0.85192211  0.26562319  0.12088988    -0.78300
C546        C  0.83194199  0.27049979  0.12353633     1.02300
Cr547      Cr  0.84712734  0.30186130  0.15388420     1.93700
Cr548      Cr  0.87316451  0.33459972  0.12640421     1.93200
Cr549      Cr  0.87849515  0.28487323  0.11933980     1.39100
O550        O  0.86641400  0.30714389  0.13309338    -1.23400
O551        O  0.80084469  0.35500222  0.32899399    -0.85600
O552        O  0.84332726  0.34079149  0.33275593    -0.82700
C553        C  0.85359987  0.35841618  0.32945570     0.97800
O554        O  0.85441199  0.37281729  0.34412137    -0.82700
O555        O  0.84128300  0.39761776  0.37932132    -0.85400
C556        C  0.82582858  0.40902084  0.37163482     1.02300
O557        O  0.80798281  0.40004862  0.36642100    -0.78100
O558        O  0.77825289  0.36865220  0.35317356    -0.78300
C559        C  0.78282514  0.36390597  0.33353825     1.02300
O560        O  0.78775908  0.32623653  0.36342668    -0.85600
O561        O  0.83026884  0.31556203  0.37021890    -0.82700
C562        C  0.85049611  0.31674778  0.37360309     0.97800
O563        O  0.86029847  0.33501018  0.37234246    -0.82700
O564        O  0.84268989  0.35949614  0.40685090    -0.85300
C565        C  0.82825265  0.36949976  0.41779376     1.02300
O566        O  0.81244290  0.37875443  0.40810814    -0.78200
O567        O  0.78532111  0.34565432  0.39340763    -0.78300
C568        C  0.78003535  0.32910837  0.38234020     1.02300
Cr569      Cr  0.81594184  0.33611650  0.35024665     1.93700
Cr570      Cr  0.84764128  0.36559697  0.37518816     1.93200
Cr571      Cr  0.79780863  0.37225957  0.37945184     1.39100
O572        O  0.82040751  0.35797300  0.36843030    -1.23400
O573        O  0.83179955  0.12488550  0.30135742    -0.85600
O574        O  0.83756772  0.14180243  0.34301266    -0.82700
C575        C  0.83357463  0.12409369  0.35262387     0.97800
O576        O  0.84775800  0.10921213  0.35260519    -0.82700
O577        O  0.88281719  0.08395942  0.33912289    -0.85400
C578        C  0.87703171  0.07267090  0.32273533     1.02300
O579        O  0.87304203  0.08183999  0.30471803    -0.78100
O580        O  0.85610093  0.11295308  0.27766928    -0.78300
C581        C  0.83629241  0.11540628  0.28358756     1.02300
O582        O  0.86372305  0.15468803  0.28534362    -0.85600
O583        O  0.87400572  0.16604138  0.32711907    -0.82700
C584        C  0.87905905  0.16513534  0.34700926     0.97800
O585        O  0.87737394  0.14723184  0.35751228    -0.82700
O586        O  0.91069330  0.12196563  0.34097202    -0.85300
C587        C  0.92206454  0.11351899  0.32598196     1.02300
O588        O  0.91311048  0.10586299  0.30896716    -0.78200
O589        O  0.89564702  0.13910424  0.28321866    -0.78300
C590        C  0.88297558  0.15450862  0.27800788     1.02300
Cr591      Cr  0.85322005  0.14516589  0.31457414     1.93700
Cr592      Cr  0.87907411  0.11615744  0.34557700     1.93200
Cr593      Cr  0.88370403  0.11095961  0.29540966     1.39100
O594        O  0.87222001  0.12390086  0.31851931    -1.23400
O595        O  0.71870738  0.15072113  0.14283870    -0.85600
O596        O  0.67663696  0.16234753  0.13451970    -0.82700
C597        C  0.65662685  0.16158127  0.12977379     0.97800
O598        O  0.64624839  0.14348899  0.13073552    -0.82700
O599        O  0.66311733  0.11896348  0.09629087    -0.85400
C600        C  0.67844818  0.11109270  0.08482115     1.02300
O601        O  0.69476949  0.10214446  0.09390962    -0.78100
O602        O  0.72027146  0.13488990  0.11096791    -0.78300
C603        C  0.72531140  0.15048941  0.12335039     1.02300
O604        O  0.70372050  0.12058506  0.17495237    -0.85600
O605        O  0.66183499  0.13685394  0.17047183    -0.82700
C606        C  0.65281211  0.11877510  0.17422098     0.97800
O607        O  0.65178833  0.10468102  0.15923075    -0.82700
O608        O  0.66527910  0.08028883  0.12350784    -0.85300
C609        C  0.68155178  0.06903211  0.12978390     1.02300
O610        O  0.69946236  0.07822355  0.13421076    -0.78200
O611        O  0.72724992  0.10918576  0.15036456    -0.78300
C612        C  0.72171741  0.11169542  0.17023664     1.02300
Cr613      Cr  0.68985815  0.14098943  0.15424361     1.93700
Cr614      Cr  0.65848737  0.11241484  0.12798493     1.93200
Cr615      Cr  0.70865912  0.10705324  0.12319938     1.39100
O616        O  0.68564009  0.12005559  0.13491528    -1.23400
O617        O  0.63511562  0.32245837  0.21506393    -0.85600
O618        O  0.62753670  0.31255361  0.17271931    -0.82700
C619        C  0.62433046  0.31405843  0.15254602     0.97800
O620        O  0.62626996  0.33249714  0.14306289    -0.82700
O621        O  0.59238116  0.35714563  0.16071327    -0.85400
C622        C  0.58132857  0.36635736  0.17549726     1.02300
O623        O  0.59081800  0.37523236  0.19164283    -0.78100
O624        O  0.60461955  0.34098823  0.21721384    -0.78300
C625        C  0.61581797  0.32448033  0.22207403     1.02300
O626        O  0.66966158  0.35091819  0.20242401    -0.85600
O627        O  0.66561786  0.33725857  0.15980525    -0.82700
C628        C  0.66977068  0.35553318  0.15122685     0.97800
O629        O  0.65527078  0.37007576  0.15058119    -0.82700
O630        O  0.62039719  0.39515495  0.16422744    -0.85300
C631        C  0.62793745  0.40573193  0.18043799     1.02300
O632        O  0.63275248  0.39584184  0.19779115    -0.78200
O633        O  0.64548898  0.36340586  0.22577271    -0.78300
C634        C  0.66522897  0.35943757  0.22064927     1.02300
Cr635      Cr  0.64817746  0.33242023  0.18715467     1.93700
Cr636      Cr  0.62400760  0.36309204  0.15646095     1.93200
Cr637      Cr  0.61918354  0.36792624  0.20635266     1.39100
O638        O  0.63030834  0.35452090  0.18335236    -1.23400
O639        O  0.66637666  0.21261916  0.36603335    -0.85600
O640        O  0.67895328  0.17066542  0.37219727    -0.82700
C641        C  0.67871557  0.15046353  0.37573168     0.97800
O642        O  0.66092891  0.13967486  0.37403873    -0.82700
O643        O  0.63539418  0.15467523  0.40866517    -0.85400
C644        C  0.62600188  0.16901833  0.42017215     1.02300
O645        O  0.61606089  0.18468567  0.41114475    -0.78100
O646        O  0.64875446  0.21240359  0.39714356    -0.78300
C647        C  0.66461948  0.21877583  0.38560616     1.02300
O648        O  0.63735928  0.19837538  0.33242043    -0.85600
O649        O  0.65466992  0.15705899  0.33477086    -0.82700
C650        C  0.63744767  0.14637979  0.33083043     0.97800
O651        O  0.62273452  0.14487490  0.34527107    -0.82700
O652        O  0.59682520  0.15631292  0.38088667    -0.85300
C653        C  0.58517592  0.17243823  0.37496091     1.02300
O654        O  0.59406906  0.19049324  0.37059119    -0.78200
O655        O  0.62448382  0.22050711  0.35742738    -0.78300
C656        C  0.62743089  0.21564634  0.33753103     1.02300
Cr657      Cr  0.65770225  0.18422557  0.35270119     1.93700
Cr658      Cr  0.62944357  0.15083508  0.37679263     1.93200
Cr659      Cr  0.62193707  0.20030894  0.38321314     1.39100
O660        O  0.63630082  0.17841497  0.37106888    -1.23400
O661        O  0.86569791  0.82831032  0.28110843    -0.85600
O662        O  0.87438171  0.81494264  0.32250864    -0.82700
C663        C  0.87901820  0.81500031  0.34250381     0.97800
O664        O  0.87726094  0.83246248  0.35369721    -0.82700
O665        O  0.91112293  0.85835148  0.33866562    -0.85400
C666        C  0.92271847  0.86741418  0.32414168     1.02300
O667        O  0.91386131  0.87654615  0.30785193    -0.78100
O668        O  0.89767126  0.84417908  0.28071735    -0.78300
C669        C  0.88529404  0.82879403  0.27476787     1.02300
O670        O  0.83328290  0.85714890  0.29742814    -0.85600
O671        O  0.83760493  0.83854786  0.33840205    -0.82700
C672        C  0.83337935  0.85604611  0.34822298     0.97800
O673        O  0.84792826  0.87061328  0.34967630    -0.82700
O674        O  0.88330797  0.89662986  0.33783773    -0.85300
C675        C  0.87738874  0.90842248  0.32181753     1.02300
O676        O  0.87350973  0.89982702  0.30351732    -0.78200
O677        O  0.85805932  0.86970566  0.27453789    -0.78300
C678        C  0.83815121  0.86671808  0.27981684     1.02300
Cr679      Cr  0.85413728  0.83636478  0.31032354     1.93700
Cr680      Cr  0.87939556  0.86405491  0.34307123     1.93200
Cr681      Cr  0.88496542  0.87152597  0.29334635     1.39100
O682        O  0.87304619  0.85746718  0.31561889    -1.23400
O683        O  0.84006545  0.70858361  0.13737604    -0.85600
O684        O  0.82670165  0.66655844  0.13189644    -0.82700
C685        C  0.82652018  0.64635880  0.12830328     0.97800
O686        O  0.84428599  0.63554035  0.12884628    -0.82700
O687        O  0.86863811  0.65109627  0.09329406    -0.85400
C688        C  0.87816014  0.66542226  0.08179840     1.02300
O689        O  0.88900574  0.68056734  0.09080325    -0.78100
O690        O  0.85745642  0.70877541  0.10603362    -0.78300
C691        C  0.84208140  0.71542966  0.11801653     1.02300
O692        O  0.86998300  0.69434496  0.17044422    -0.85600
O693        O  0.85274773  0.65286704  0.16830264    -0.82700
C694        C  0.87008392  0.64206779  0.17106701     0.97800
O695        O  0.88367149  0.64006117  0.15567958    -0.82700
O696        O  0.90823304  0.65173190  0.11946928    -0.85300
C697        C  0.92018755  0.66718618  0.12654893     1.02300
O698        O  0.91176920  0.68527893  0.13137656    -0.78200
O699        O  0.88267743  0.71612833  0.14504297    -0.78300
C700        C  0.87974530  0.71169809  0.16504355     1.02300
Cr701      Cr  0.84894404  0.68008645  0.15055632     1.93700
Cr702      Cr  0.87571422  0.64658150  0.12477237     1.93200
Cr703      Cr  0.88416941  0.69594490  0.11915590     1.39100
O704        O  0.86955977  0.67417948  0.13132347    -1.23400
O705        O  0.70536864  0.85042205  0.17236194    -0.85600
O706        O  0.66286099  0.83611724  0.16911910    -0.82700
C707        C  0.65360919  0.85407259  0.17314755     0.97800
O708        O  0.65243193  0.86856492  0.15856881    -0.82700
O709        O  0.66509448  0.89393285  0.12327266    -0.85400
C710        C  0.68110421  0.90502717  0.13047574     1.02300
O711        O  0.69875737  0.89562805  0.13526710    -0.78100
O712        O  0.72757762  0.86386517  0.14758477    -0.78300
C713        C  0.72297107  0.85998931  0.16735815     1.02300
O714        O  0.71803945  0.82182181  0.13755637    -0.85600
O715        O  0.67505958  0.81142984  0.13101001    -0.82700
C716        C  0.65474714  0.81279442  0.12809521     0.97800
O717        O  0.64521080  0.83114438  0.12987509    -0.82700
O718        O  0.66227193  0.85604997  0.09545015    -0.85300
C719        C  0.67697992  0.86551001  0.08432760     1.02300
O720        O  0.69300814  0.87467960  0.09370413    -0.78200
O721        O  0.71990856  0.84126012  0.10753239    -0.78300
C722        C  0.72585593  0.82505480  0.11872058     1.02300
Cr723      Cr  0.68993993  0.83160598  0.15111973     1.93700
Cr724      Cr  0.65818624  0.86177877  0.12721636     1.93200
Cr725      Cr  0.70797335  0.86781466  0.12183789     1.39100
O726        O  0.68540346  0.85369505  0.13320829    -1.23400
O727        O  0.64090534  0.77211704  0.34083975    -0.85600
O728        O  0.63221215  0.81391783  0.32861388    -0.82700
C729        C  0.62912851  0.83417714  0.32892898     0.97800
O730        O  0.63101904  0.84471992  0.34674423    -0.82700
O731        O  0.59712303  0.82815248  0.37276699    -0.85400
C732        C  0.58614320  0.81336503  0.38230517     1.02300
O733        O  0.59589348  0.79797950  0.39218844    -0.78100
O734        O  0.61072288  0.77037858  0.35997265    -0.78300
C735        C  0.62176813  0.76487359  0.34348493     1.02300
O736        O  0.67523473  0.78755730  0.36816564    -0.85600
O737        O  0.67011826  0.82881224  0.35158981    -0.82700
C738        C  0.67482155  0.83856932  0.36907060     0.97800
O739        O  0.66071367  0.83986045  0.38413752    -0.82700
O740        O  0.62563665  0.82785435  0.41062928    -0.85300
C741        C  0.63314566  0.81246636  0.42229421     1.02300
O742        O  0.63780978  0.79441442  0.41362656    -0.78200
O743        O  0.65185619  0.76476589  0.38314887    -0.78300
C744        C  0.67141634  0.77008097  0.37837709     1.02300
Cr745      Cr  0.65325231  0.80098370  0.34899969     1.93700
Cr746      Cr  0.62905402  0.83323723  0.37808593     1.93200
Cr747      Cr  0.62483532  0.78360894  0.38616199     1.39100
O748        O  0.63553140  0.80589670  0.37115543    -1.23400
O749        O  0.80559870  0.66150124  0.36647253    -0.85600
O750        O  0.84747873  0.65687537  0.34993853    -0.82700
C751        C  0.85760470  0.66056603  0.36744494     0.97800
O752        O  0.85810347  0.64623848  0.38221596    -0.82700
O753        O  0.84496963  0.61095125  0.40760708    -0.85400
C754        C  0.82883699  0.61755147  0.41891556     1.02300
O755        O  0.81093598  0.62201653  0.40987241    -0.78100
O756        O  0.78236797  0.63730651  0.37940425    -0.78300
C757        C  0.78770673  0.65706875  0.37585439     1.02300
O758        O  0.79064758  0.62854574  0.33747443    -0.85600
O759        O  0.83253162  0.62007414  0.32562964    -0.82700
C760        C  0.85266901  0.61605253  0.32612809     0.97800
O761        O  0.86320957  0.61746396  0.34403125    -0.82700
O762        O  0.84674364  0.58353999  0.36929308    -0.85300
C763        C  0.83145321  0.57219429  0.37736149     1.02300
O764        O  0.81529420  0.58114080  0.38677410    -0.78200
O765        O  0.78913020  0.59733815  0.35462370    -0.78300
C766        C  0.78368435  0.60924373  0.33884601     1.02300
Cr767      Cr  0.81946859  0.64035460  0.34655347     1.93700
Cr768      Cr  0.85130609  0.61506072  0.37529397     1.93200
Cr769      Cr  0.80121998  0.61027487  0.38171189     1.39100
O770        O  0.82400554  0.62172151  0.36797269    -1.23400
O771        O  0.67221242  0.62169380  0.21158589    -0.85600
O772        O  0.66882267  0.63787808  0.16996969    -0.82700
C773        C  0.67250092  0.62024067  0.16002930     0.97800
O774        O  0.65788815  0.60569287  0.15933065    -0.82700
O775        O  0.62194634  0.58099663  0.17187676    -0.85400
C776        C  0.62844289  0.56938583  0.18774903     1.02300
O777        O  0.63295056  0.57816771  0.20580186    -0.78100
O778        O  0.64762122  0.60908423  0.23456434    -0.78300
C779        C  0.66747033  0.61206043  0.22916934     1.02300
O780        O  0.63926876  0.65119660  0.22610431    -0.85600
O781        O  0.63178488  0.66297219  0.18386651    -0.82700
C782        C  0.62783313  0.66209930  0.16373250     0.97800
O783        O  0.62949945  0.64405509  0.15355275    -0.82700
O784        O  0.59498279  0.61946065  0.16987920    -0.85300
C785        C  0.58339468  0.60996621  0.18413864     1.02300
O786        O  0.59223280  0.60099404  0.20056771    -0.78200
O787        O  0.60795403  0.63388505  0.22752969    -0.78300
C788        C  0.61987926  0.64978678  0.23304753     1.02300
Cr789      Cr  0.65160081  0.64180531  0.19752292     1.93700
Cr790      Cr  0.62657439  0.61309356  0.16562677     1.93200
Cr791      Cr  0.62100477  0.60658820  0.21538536     1.39100
O792        O  0.63284785  0.62044591  0.19287086    -1.23400
O793        O  0.19917185  0.31786223  0.36934828    -0.85600
O794        O  0.15705793  0.32254015  0.35293125    -0.82700
C795        C  0.14782091  0.31913790  0.37095052     0.97800
O796        O  0.14788901  0.33389688  0.38526990    -0.82700
O797        O  0.16140438  0.37022354  0.40862241    -0.85400
C798        C  0.17841904  0.36652530  0.41988512     1.02300
O799        O  0.19647023  0.36256424  0.41069519    -0.78100
O800        O  0.22282711  0.34277475  0.38021580    -0.78300
C801        C  0.21725108  0.32282504  0.37806514     1.02300
O802        O  0.21432995  0.34808009  0.33805533    -0.85600
O803        O  0.17234558  0.35766162  0.32700462    -0.82700
C804        C  0.15232682  0.36232887  0.32773929     0.97800
O805        O  0.14194087  0.36157493  0.34584200    -0.82700
O806        O  0.15843283  0.39626399  0.36954603    -0.85300
C807        C  0.17429060  0.40826043  0.37516415     1.02300
O808        O  0.19162263  0.40024281  0.38309005    -0.78200
O809        O  0.21625881  0.38072193  0.35169232    -0.78300
C810        C  0.22115884  0.36738132  0.33691178     1.02300
Cr811      Cr  0.18534122  0.33808873  0.34850626     1.93700
Cr812      Cr  0.15441148  0.36490384  0.37679314     1.93200
Cr813      Cr  0.20495459  0.37057469  0.38057945     1.39100
O814        O  0.18156499  0.35804329  0.36894453    -1.23400
O815        O  0.33026146  0.34933309  0.20535190    -0.85600
O816        O  0.33371559  0.33446011  0.16334244    -0.82700
C817        C  0.32911242  0.35176661  0.15316034     0.97800
O818        O  0.34280090  0.36720250  0.15211398    -0.82700
O819        O  0.37804107  0.39358793  0.16384364    -0.85400
C820        C  0.37071205  0.40478643  0.17966028     1.02300
O821        O  0.36602787  0.39562679  0.19749198    -0.78100
O822        O  0.35438139  0.36426336  0.22725119    -0.78300
C823        C  0.33469000  0.35954473  0.22265636     1.02300
O824        O  0.36603775  0.32240639  0.21804383    -0.85600
O825        O  0.37267367  0.31149689  0.17553671    -0.82700
C826        C  0.37456230  0.31246024  0.15513206     0.97800
O827        O  0.37211297  0.33055729  0.14530601    -0.82700
O828        O  0.40626709  0.35603691  0.16142376    -0.85300
C829        C  0.41745058  0.36588068  0.17571084     1.02300
O830        O  0.40808766  0.37560711  0.19142262    -0.78200
O831        O  0.39568057  0.34246432  0.21886246    -0.78300
C832        C  0.38544636  0.32545862  0.22431312     1.02300
Cr833      Cr  0.35193830  0.33109649  0.19019030     1.93700
Cr834      Cr  0.37444536  0.36134055  0.15762239     1.93200
Cr835      Cr  0.38021986  0.36843201  0.20710534     1.39100
O836        O  0.36893755  0.35369842  0.18501893    -1.23400
O837        O  0.36369264  0.21102914  0.33783763    -0.85600
O838        O  0.37124201  0.16949080  0.32453495    -0.82700
C839        C  0.37497481  0.14933724  0.32432622     0.97800
O840        O  0.37439438  0.13848712  0.34213777    -0.82700
O841        O  0.40943953  0.15488759  0.36654018    -0.85400
C842        C  0.42079557  0.16964623  0.37550570     1.02300
O843        O  0.41166106  0.18506147  0.38593304    -0.78100
O844        O  0.39501545  0.21216342  0.35494100    -0.78300
C845        C  0.38325967  0.21753632  0.33902674     1.02300
O846        O  0.33096241  0.19501768  0.36746996    -0.85600
O847        O  0.33528669  0.15406711  0.35015115    -0.82700
C848        C  0.33212707  0.14363202  0.36763208     0.97800
O849        O  0.34709132  0.14256297  0.38174675    -0.82700
O850        O  0.38352057  0.15508456  0.40607916    -0.85300
C851        C  0.37641758  0.17042307  0.41812457     1.02300
O852        O  0.37080526  0.18830939  0.40975695    -0.78200
O853        O  0.35507725  0.21809706  0.38046835    -0.78300
C854        C  0.33526134  0.21250139  0.37739437     1.02300
Cr855      Cr  0.35171657  0.18203731  0.34659185     1.93700
Cr856      Cr  0.37807640  0.14965691  0.37367122     1.93200
Cr857      Cr  0.38231253  0.19924288  0.38178191     1.39100
O858        O  0.37091865  0.17698372  0.36736732    -1.23400
O859        O  0.13932736  0.14951970  0.28770013    -0.85600
O860        O  0.13243847  0.16288936  0.32923804    -0.82700
C861        C  0.12872311  0.16324368  0.34940754     0.97800
O862        O  0.13067600  0.14588235  0.36073258    -0.82700
O863        O  0.09679686  0.11935468  0.34576866    -0.85400
C864        C  0.08564184  0.10874108  0.33201885     1.02300
O865        O  0.09503830  0.09862769  0.31658787    -0.78100
O866        O  0.10873528  0.13080353  0.28803553    -0.78300
C867        C  0.11993824  0.14667957  0.28118808     1.02300
O868        O  0.17398730  0.12201711  0.30281068    -0.85600
O869        O  0.17026525  0.13970226  0.34388358    -0.82700
C870        C  0.17454623  0.12234384  0.35405517     0.97800
O871        O  0.15995377  0.10799180  0.35659265    -0.82700
O872        O  0.12508699  0.08129584  0.34550768    -0.85300
C873        C  0.13228462  0.06962229  0.32988909     1.02300
O874        O  0.13696760  0.07831737  0.31186647    -0.78200
O875        O  0.14937812  0.10787353  0.28101300    -0.78300
C876        C  0.16923484  0.11191301  0.28554593     1.02300
Cr877      Cr  0.15270306  0.14192377  0.31642572     1.93700
Cr878      Cr  0.12856727  0.11411100  0.35028220     1.93200
Cr879      Cr  0.12329304  0.10500731  0.30104544     1.39100
O880        O  0.13467624  0.12033582  0.32260580    -1.23400
O881        O  0.29829066  0.11923811  0.17182158    -0.85600
O882        O  0.33897128  0.13728694  0.16554387    -0.82700
C883        C  0.34975316  0.12019310  0.16941850     0.97800
O884        O  0.35093294  0.10540664  0.15511654    -0.82700
O885        O  0.33883943  0.07920216  0.11998808    -0.85400
C886        C  0.32414364  0.06688516  0.12789991     1.02300
O887        O  0.30583321  0.07464375  0.13325003    -0.78100
O888        O  0.27554749  0.10362732  0.14890388    -0.78300
C889        C  0.28105460  0.10847815  0.16829776     1.02300
O890        O  0.28064898  0.14664648  0.13852504    -0.85600
O891        O  0.32193045  0.16028490  0.12839855    -0.82700
C892        C  0.34209652  0.16068912  0.12435883     0.97800
O893        O  0.35335470  0.14331141  0.12589062    -0.82700
O894        O  0.33714979  0.11716043  0.09259801    -0.85300
C895        C  0.32228518  0.10759648  0.08189355     1.02300
O896        O  0.30701044  0.09735122  0.09163208    -0.78200
O897        O  0.27837894  0.12768812  0.10836569    -0.78300
C898        C  0.27235255  0.14359023  0.11993611     1.02300
Cr899      Cr  0.31039454  0.13918527  0.14963774     1.93700
Cr900      Cr  0.34307080  0.11169745  0.12397274     1.93200
Cr901      Cr  0.29345482  0.10190101  0.12125363     1.39100
O902        O  0.31556410  0.11754162  0.13140048    -1.23400
O903        O  0.15768479  0.25964546  0.13982213    -0.85600
O904        O  0.17314873  0.30108325  0.13541350    -0.82700
C905        C  0.17417472  0.32126507  0.13175754     0.97800
O906        O  0.15703895  0.33300277  0.13286816    -0.82700
O907        O  0.13173277  0.32076122  0.09713651    -0.85400
C908        C  0.12177853  0.30745050  0.08487999     1.02300
O909        O  0.11127229  0.29156902  0.09308193    -0.78100
O910        O  0.14160729  0.26166207  0.10800455    -0.78300
C911        C  0.15639258  0.25394716  0.12005664     1.02300
O912        O  0.12782257  0.27476772  0.17272629    -0.85600
O913        O  0.14785158  0.31511376  0.17208646    -0.82700
C914        C  0.13134866  0.32703435  0.17519955     0.97800
O915        O  0.11759468  0.32971236  0.16015822    -0.82700
O916        O  0.09249573  0.32065033  0.12391051    -0.85300
C917        C  0.07974428  0.30508475  0.12909896     1.02300
O918        O  0.08728045  0.28633771  0.13289965    -0.78200
O919        O  0.11507575  0.25407083  0.14647752    -0.78300
C920        C  0.11763808  0.25791697  0.16666269     1.02300
Cr921      Cr  0.15004557  0.28827203  0.15356132     1.93700
Cr922      Cr  0.12512719  0.32392379  0.12894357     1.93200
Cr923      Cr  0.11493645  0.27506964  0.12106142     1.39100
O924        O  0.13003678  0.29582158  0.13430464    -1.23400
O925        O  0.33209128  0.77623656  0.37625658    -0.85600
O926        O  0.33304931  0.81644822  0.35603375    -0.82700
C927        C  0.33080010  0.82862179  0.37245215     0.97800
O928        O  0.34650276  0.83136551  0.38547826    -0.82700
O929        O  0.38267319  0.82073146  0.41012783    -0.85400
C930        C  0.37696799  0.80529156  0.42285291     1.02300
O931        O  0.37273414  0.78662380  0.41528977    -0.78100
O932        O  0.35817816  0.75466422  0.38759719    -0.78300
C933        C  0.33799035  0.75908152  0.38592077     1.02300
O934        O  0.36401350  0.76040420  0.34540460    -0.85600
O935        O  0.36847018  0.80155253  0.32981142    -0.82700
C936        C  0.37308790  0.82152421  0.32851485     0.97800
O937        O  0.37332585  0.83343146  0.34558391    -0.82700
O938        O  0.40921840  0.82004758  0.37052098    -0.85300
C939        C  0.42120408  0.80666225  0.38068629     1.02300
O940        O  0.41254375  0.79107753  0.39122709    -0.78200
O941        O  0.39640057  0.76201330  0.36053041    -0.78300
C942        C  0.38387345  0.75472957  0.34589667     1.02300
Cr943      Cr  0.35090849  0.78924082  0.35344679     1.93700
Cr944      Cr  0.37745535  0.82432759  0.37750917     1.93200
Cr945      Cr  0.38404191  0.77527581  0.38753085     1.39100
O946        O  0.37101294  0.79639956  0.37279493    -1.23400
O947        O  0.17642856  0.85100404  0.30520683    -0.85600
O948        O  0.17004309  0.83645357  0.34713308    -0.82700
C949        C  0.17447953  0.85445904  0.35609018     0.97800
O950        O  0.16027569  0.86936529  0.35655390    -0.82700
O951        O  0.12546967  0.89485391  0.34297041    -0.85400
C952        C  0.13329857  0.90609827  0.32743114     1.02300
O953        O  0.13883775  0.89696307  0.30984947    -0.78100
O954        O  0.15355239  0.86546149  0.28170535    -0.78300
C955        C  0.17294505  0.86075788  0.28742831     1.02300
O956        O  0.14220870  0.82321965  0.29020482    -0.85600
O957        O  0.13215087  0.81295619  0.33209078    -0.82700
C958        C  0.12772588  0.81421856  0.35208188     0.97800
O959        O  0.13033662  0.83213117  0.36220163    -0.82700
O960        O  0.09738367  0.85711613  0.34398122    -0.85300
C961        C  0.08684099  0.86645336  0.32889629     1.02300
O962        O  0.09689506  0.87563038  0.31320652    -0.78200
O963        O  0.11236019  0.84258931  0.28704401    -0.78300
C964        C  0.12345223  0.82599116  0.28219143     1.02300
Cr965      Cr  0.15388064  0.83258092  0.31899032     1.93700
Cr966      Cr  0.12894112  0.86280233  0.34955954     1.93200
Cr967      Cr  0.12613690  0.86914420  0.29969401     1.39100
O968        O  0.13618956  0.85493412  0.32265633    -1.23400
O969        O  0.28713093  0.82273586  0.13935018    -0.85600
O970        O  0.32871376  0.81095195  0.12880173    -0.82700
C971        C  0.34899348  0.81109082  0.12543639     0.97800
O972        O  0.35993130  0.82849423  0.12849315    -0.82700
O973        O  0.34299321  0.85498214  0.09626366    -0.85400
C974        C  0.32868037  0.86547939  0.08579591     1.02300
O975        O  0.31334606  0.87530759  0.09582960    -0.78100
O976        O  0.28483517  0.84377031  0.11055242    -0.78300
C977        C  0.27883463  0.82714546  0.12106326     1.02300
O978        O  0.30364804  0.84815295  0.17454993    -0.85600
O979        O  0.34480975  0.83222951  0.16740164    -0.82700
C980        C  0.35496418  0.84948732  0.17239612     0.97800
O981        O  0.35597529  0.86510803  0.15898063    -0.82700
O982        O  0.34387306  0.89225020  0.12441417    -0.85300
C983        C  0.32900260  0.90403501  0.13265808     1.02300
O984        O  0.31122632  0.89552645  0.13866463    -0.78200
O985        O  0.28121039  0.86525212  0.15242530    -0.78300
C986        C  0.28655062  0.85918983  0.17153888     1.02300
Cr987      Cr  0.31648766  0.83018585  0.15125494     1.93700
Cr988      Cr  0.34878157  0.85976822  0.12760757     1.93200
Cr989      Cr  0.29932988  0.86887367  0.12504239     1.39100
O990        O  0.32140397  0.85303606  0.13453314    -1.23400
O991        O  0.13453919  0.69759278  0.17229939    -0.85600
O992        O  0.15320636  0.65699809  0.16850002    -0.82700
C993        C  0.13587424  0.64645937  0.17223573     0.97800
O994        O  0.12180955  0.64405677  0.15737143    -0.82700
O995        O  0.09617422  0.65495778  0.12170997    -0.85400
C996        C  0.08386566  0.66997692  0.12895673     1.02300
O997        O  0.09183945  0.68826132  0.13398013    -0.78100
O998        O  0.12080730  0.71939508  0.14752532    -0.78300
C999        C  0.12419099  0.71465123  0.16737448     1.02300
O1000       O  0.16297350  0.71372143  0.13865721    -0.85600
O1001       O  0.17738440  0.67236565  0.13158435    -0.82700
C1002       C  0.17794422  0.65214534  0.12820114     0.97800
O1003       O  0.16048092  0.64080220  0.12927914    -0.82700
O1004       O  0.13487697  0.65573476  0.09455735    -0.85300
C1005       C  0.12493434  0.66999945  0.08342903     1.02300
O1006       O  0.11403255  0.68486906  0.09276118    -0.78200
O1007       O  0.14522381  0.71341004  0.10763875    -0.78300
C1008       C  0.16073527  0.72027516  0.11926275     1.02300
Cr1009     Cr  0.15545344  0.68467578  0.15138292     1.93700
Cr1010     Cr  0.12877805  0.65076204  0.12618464     1.93200
Cr1011     Cr  0.11905312  0.69983771  0.12128250     1.39100
O1012       O  0.13443677  0.67840587  0.13274805    -1.23400
O1013       O  0.36557671  0.65090500  0.21912742    -0.85600
O1014       O  0.37526591  0.66124209  0.17681335    -0.82700
C1015       C  0.37806144  0.66008769  0.15651664     0.97800
O1016       O  0.37571439  0.64199097  0.14672424    -0.82700
O1017       O  0.40885408  0.61704000  0.16481385    -0.85400
C1018       C  0.41948428  0.60740063  0.17963078     1.02300
O1019       O  0.40954044  0.59779112  0.19517134    -0.78100
O1020       O  0.39466265  0.63040191  0.22249404    -0.78300
C1021       C  0.38395719  0.64717915  0.22767293     1.02300
O1022       O  0.33045617  0.62395364  0.20412423    -0.85600
O1023       O  0.33684942  0.63833000  0.16245955    -0.82700
C1024       C  0.33227886  0.62065923  0.15291095     0.97800
O1025       O  0.34599063  0.60528973  0.15249740    -0.82700
O1026       O  0.38078301  0.57926895  0.16560163    -0.85300
C1027       C  0.37230421  0.56805600  0.18081114     1.02300
O1028       O  0.36688814  0.57714058  0.19843328    -0.78200
O1029       O  0.35312048  0.60844517  0.22712440    -0.78300
C1030       C  0.33382352  0.61377584  0.22164982     1.02300
Cr1031     Cr  0.35337792  0.64192591  0.19033454     1.93700
Cr1032     Cr  0.37737169  0.61142270  0.15933689     1.93200
Cr1033     Cr  0.38036777  0.60445738  0.20905073     1.39100
O1034       O  0.37050988  0.61922826  0.18636204    -1.23400
O1035       O  0.19931851  0.62858656  0.33038635    -0.85600
O1036       O  0.15701500  0.64254242  0.33612745    -0.82700
C1037       C  0.14814934  0.62479757  0.33055411     0.97800
O1038       O  0.14705793  0.60916797  0.34398617    -0.82700
O1039       O  0.15923818  0.58217078  0.37835292    -0.85400
C1040       C  0.17482489  0.57118020  0.37032220     1.02300
O1041       O  0.19258728  0.58049308  0.36551697    -0.78100
O1042       O  0.22146035  0.61263239  0.35360740    -0.78300
C1043       C  0.21675594  0.61835691  0.33426764     1.02300
O1044       O  0.21290501  0.65449536  0.36665645    -0.85600
O1045       O  0.17035037  0.66419828  0.37541122    -0.82700
C1046       C  0.15002110  0.66286795  0.37828527     0.97800
O1047       O  0.14012828  0.64495448  0.37483989    -0.82700
O1048       O  0.15753976  0.61887872  0.40761930    -0.85300
C1049       C  0.17240071  0.60929927  0.41832414     1.02300
O1050       O  0.18799863  0.59986641  0.40840738    -0.78200
O1051       O  0.21523962  0.63324449  0.39531701    -0.78300
C1052       C  0.22075163  0.65030951  0.38520746     1.02300
Cr1053     Cr  0.18452258  0.64572227  0.35339247     1.93700
Cr1054     Cr  0.15286830  0.61434535  0.37575477     1.93200
Cr1055     Cr  0.20256761  0.60759853  0.37996250     1.39100
O1056       O  0.18009211  0.62249021  0.36981074    -1.23400
C1057       C  0.25523082  0.61985274  0.24029345    -0.18100
C1058       C  0.23876934  0.62088318  0.25622382    -0.20300
C1059       C  0.24352075  0.61622263  0.27816396     0.20400
C1060       C  0.26491004  0.60979460  0.28394873    -0.03200
C1061       C  0.28146703  0.60871725  0.26791234    -0.06300
C1062       C  0.27670765  0.61413858  0.24604668     0.20600
C1063       C  0.30296022  0.60291238  0.27394009     0.18800
C1064       C  0.30763304  0.59775852  0.29572829    -0.17800
C1065       C  0.29126462  0.59884616  0.31159034    -0.20000
C1066       C  0.26996819  0.60505308  0.30589490     0.20300
C1067       C  0.25384172  0.60714828  0.32193395    -0.33000
C1068       C  0.23268156  0.61421778  0.31653609     0.01000
C1069       C  0.22749174  0.61840927  0.29452373    -0.24300
C1070       C  0.29369680  0.61458005  0.23056749    -0.28900
C1071       C  0.31536000  0.60977268  0.23677763     0.06700
C1072       C  0.31965598  0.60322995  0.25831053    -0.27600
H1073       H  0.25126176  0.62394571  0.22355443     0.11400
H1074       H  0.22242040  0.62570746  0.25144868     0.12500
H1075       H  0.32406095  0.59329721  0.30058327     0.11600
H1076       H  0.29535246  0.59516306  0.32840002     0.10800
H1077       H  0.25804929  0.60391886  0.33881693     0.16200
H1078       H  0.21117580  0.62376710  0.29019626     0.12100
H1079       H  0.29019553  0.61946209  0.21392459     0.15000
H1080       H  0.33624625  0.59945381  0.26324142     0.14800
C1081       C  0.23390472  0.60073281  0.15401425    -0.18100
C1082       C  0.25607557  0.59610082  0.15744102    -0.20300
C1083       C  0.27241275  0.60844269  0.14697549     0.20400
C1084       C  0.26630384  0.62531074  0.13249989    -0.03200
C1085       C  0.24394866  0.63002372  0.12909938    -0.06300
C1086       C  0.22765194  0.61782166  0.14008997     0.20600
C1087       C  0.23796890  0.64771361  0.11562384     0.18800
C1088       C  0.25424603  0.66003379  0.10509179    -0.17800
C1089       C  0.27634844  0.65536011  0.10843013    -0.20000
C1090       C  0.28252770  0.63831134  0.12238269     0.20300
C1091       C  0.30458936  0.63498798  0.12749284    -0.33000
C1092       C  0.31069130  0.61891188  0.14259166     0.01000
C1093       C  0.29467531  0.60518084  0.15175606    -0.24300
C1094       C  0.20552226  0.62374667  0.13793255    -0.28900
C1095       C  0.19967222  0.64207764  0.12544726     0.06700
C1096       C  0.21591161  0.65358470  0.11390167    -0.27600
H1097       H  0.22164974  0.59129308  0.16269634     0.11400
H1098       H  0.26044949  0.58320330  0.16871111     0.12500
H1099       H  0.24989075  0.67368768  0.09473290     0.11600
H1100       H  0.28862323  0.66549524  0.10059857     0.10800
H1101       H  0.31696153  0.64587619  0.12087056     0.16200
H1102       H  0.29937986  0.59324648  0.16394344     0.12100
H1103       H  0.19308999  0.61520390  0.14729558     0.15000
H1104       H  0.21143872  0.66790092  0.10450181     0.14800
C1105       C  0.15677063  0.59529296  0.25652576    -0.18100
C1106       C  0.15557598  0.59866459  0.23392313    -0.20300
C1107       C  0.14372559  0.61630615  0.22539024     0.20400
C1108       C  0.13261164  0.63047181  0.23981022    -0.03200
C1109       C  0.13408810  0.62726679  0.26261886    -0.06300
C1110       C  0.14631776  0.60964395  0.27103963     0.20600
C1111       C  0.12418276  0.64231360  0.27698968     0.18800
C1112       C  0.11233026  0.65995288  0.26850570    -0.17800
C1113       C  0.11056934  0.66292672  0.24594853    -0.20000
C1114       C  0.12082793  0.64842760  0.23149054     0.20300
C1115       C  0.12035294  0.65217712  0.20891615    -0.33000
C1116       C  0.13202851  0.63865442  0.19459457     0.01000
C1117       C  0.14356934  0.62065618  0.20282281    -0.24300
C1118       C  0.14887887  0.60743318  0.29377561    -0.28900
C1119       C  0.13995889  0.62304901  0.30802336     0.06700
C1120       C  0.12728909  0.64014362  0.29955155    -0.27600
H1121       H  0.16633087  0.58177850  0.26267132     0.11400
H1122       H  0.16423474  0.58764622  0.22311065     0.12500
H1123       H  0.10471860  0.67169566  0.27934072     0.11600
H1124       H  0.10160507  0.67685223  0.23981421     0.10800
H1125       H  0.11203124  0.66641882  0.20254949     0.16200
H1126       H  0.15309204  0.61062187  0.19175675     0.12100
H1127       H  0.15923602  0.59466006  0.30026433     0.15000
H1128       H  0.12080834  0.65243139  0.31054246     0.14800
C1129       C  0.25368982  0.75343840  0.10346792    -0.18100
C1130       C  0.23669093  0.73815818  0.10291361    -0.20300
C1131       C  0.21489251  0.74489599  0.10519568     0.20400
C1132       C  0.21002723  0.76734113  0.10698783    -0.03200
C1133       C  0.22718643  0.78277975  0.10744341    -0.06300
C1134       C  0.24912546  0.77568806  0.10623729     0.20600
C1135       C  0.22245419  0.80513795  0.11041984     0.18800
C1136       C  0.20059437  0.81188688  0.11219961    -0.17800
C1137       C  0.18357810  0.79655810  0.11188001    -0.20000
C1138       C  0.18814047  0.77423111  0.10969180     0.20300
C1139       C  0.17141655  0.75857622  0.11154851    -0.33000
C1140       C  0.17647701  0.73627557  0.11097689     0.01000
C1141       C  0.19803108  0.72951804  0.10716216    -0.24300
C1142       C  0.26611095  0.79079108  0.10910775    -0.28900
C1143       C  0.26144279  0.81285525  0.11289673     0.06700
C1144       C  0.23969866  0.82012436  0.11284449    -0.27600
H1145       H  0.27043994  0.74778599  0.10240694     0.11400
H1146       H  0.24064425  0.72098476  0.10145246     0.12500
H1147       H  0.19668872  0.82896920  0.11451452     0.11600
H1148       H  0.16689213  0.80211060  0.11397330     0.10800
H1149       H  0.15478076  0.76364075  0.11501290     0.16200
H1150       H  0.20183117  0.71222873  0.10716439     0.12100
H1151       H  0.28295626  0.78526956  0.10947668     0.15000
H1152       H  0.23621354  0.83712954  0.11626031     0.14800
C1153       C  0.34049910  0.73514854  0.10327036    -0.18100
C1154       C  0.34476534  0.71321440  0.10782197    -0.20300
C1155       C  0.36207191  0.70745945  0.12167478     0.20400
C1156       C  0.37588990  0.72389623  0.13017599    -0.03200
C1157       C  0.37176865  0.74602014  0.12532606    -0.06300
C1158       C  0.35357533  0.75164733  0.11237197     0.20600
C1159       C  0.38484316  0.76254670  0.13478350     0.18800
C1160       C  0.40249142  0.75673353  0.14817531    -0.17800
C1161       C  0.40637145  0.73482966  0.15324885    -0.20000
C1162       C  0.39281445  0.71837218  0.14480757     0.20300
C1163       C  0.39486166  0.69673420  0.15194822    -0.33000
C1164       C  0.38046772  0.68057362  0.14433185     0.01000
C1165       C  0.36479575  0.68578154  0.12845870    -0.24300
C1166       C  0.34771373  0.77361529  0.11025113    -0.28900
C1167       C  0.35963527  0.78999049  0.12109418     0.06700
C1168       C  0.37892240  0.78452268  0.13221634    -0.27600
H1169       H  0.32647773  0.73924010  0.09328783     0.11400
H1170       H  0.33397891  0.70080753  0.10122809     0.12500
H1171       H  0.41270119  0.76919374  0.15553543     0.11600
H1172       H  0.41950147  0.73082554  0.16439354     0.10800
H1173       H  0.40673479  0.69267327  0.16442749     0.16200
H1174       H  0.35335896  0.67336133  0.12302521     0.12100
H1175       H  0.33281082  0.77785196  0.10166281     0.15000
H1176       H  0.38796373  0.79709914  0.14082214     0.14800
C1177       C  0.11591239  0.73336279  0.24533092    -0.18100
C1178       C  0.11539694  0.74928804  0.26166949    -0.20300
C1179       C  0.11383844  0.77146621  0.25616778     0.20400
C1180       C  0.11158009  0.77763351  0.23409018    -0.03200
C1181       C  0.11213694  0.76157165  0.21761469    -0.06300
C1182       C  0.11489588  0.73939430  0.22324966     0.20600
C1183       C  0.11110755  0.76783908  0.19547872     0.18800
C1184       C  0.10872527  0.78994341  0.19002122    -0.17800
C1185       C  0.10823091  0.80587018  0.20634359    -0.20000
C1186       C  0.11005915  0.79993680  0.22838588     0.20300
C1187       C  0.11174914  0.81593263  0.24469457    -0.33000
C1188       C  0.11552960  0.80982022  0.26641730     0.01000
C1189       C  0.11587412  0.78764300  0.27218341    -0.24300
C1190       C  0.11770372  0.72382259  0.20671000    -0.28900
C1191       C  0.11774647  0.73017357  0.18463864     0.06700
C1192       C  0.11360887  0.75205806  0.17915920    -0.27600
H1193       H  0.11783421  0.71640785  0.24994055     0.11400
H1194       H  0.11694998  0.74430959  0.27857756     0.12500
H1195       H  0.10789432  0.79498176  0.17308119     0.11600
H1196       H  0.10705924  0.82288278  0.20168665     0.10800
H1197       H  0.11186872  0.83307333  0.24029420     0.16200
H1198       H  0.11894417  0.78304546  0.28900938     0.12100
H1199       H  0.12070205  0.70694419  0.21103273     0.15000
H1200       H  0.11361786  0.75707854  0.16217995     0.14800
C1201       C  0.10009358  0.71854904  0.35146207    -0.18100
C1202       C  0.09707800  0.74080308  0.34738242    -0.20300
C1203       C  0.10898016  0.75648515  0.35914130     0.20400
C1204       C  0.12294313  0.74980284  0.37617838    -0.03200
C1205       C  0.12616908  0.72734268  0.38013081    -0.06300
C1206       C  0.11517599  0.71164075  0.36725295     0.20600
C1207       C  0.14182844  0.72065594  0.39562867     0.18800
C1208       C  0.15284389  0.73634287  0.40818729    -0.17800
C1209       C  0.14946804  0.75858357  0.40444458    -0.20000
C1210       C  0.13513757  0.76547425  0.38798173     0.20300
C1211       C  0.13428038  0.78752466  0.38181709    -0.33000
C1212       C  0.12211545  0.79382488  0.36348371     0.01000
C1213       C  0.10866311  0.77848964  0.35291520    -0.24300
C1214       C  0.12095181  0.68952984  0.36899796    -0.28900
C1215       C  0.13813606  0.68322007  0.38279819     0.06700
C1216       C  0.14765193  0.69860836  0.39688771    -0.27600
H1217       H  0.09145802  0.70674398  0.34149890     0.11400
H1218       H  0.08618070  0.74571163  0.33435132     0.12500
H1219       H  0.16482425  0.73142441  0.42022920     0.11600
H1220       H  0.15889382  0.77037391  0.41368596     0.10800
H1221       H  0.14490035  0.79930309  0.38972775     0.16200
H1222       H  0.09934625  0.78341054  0.33869175     0.12100
H1223       H  0.11385515  0.67770053  0.35789210     0.15000
H1224       H  0.16097702  0.69368431  0.40745961     0.14800
C1225       C  0.20138890  0.88888236  0.21730605    -0.18100
C1226       C  0.21739973  0.88859180  0.20096246    -0.20300
C1227       C  0.23715275  0.87745477  0.20422271     0.20400
C1228       C  0.24118884  0.86723221  0.22446482    -0.03200
C1229       C  0.22505816  0.86758013  0.24097988    -0.06300
C1230       C  0.20488524  0.87806696  0.23718715     0.20600
C1231       C  0.22879351  0.85671843  0.26093631     0.18800
C1232       C  0.24884649  0.84620909  0.26448804    -0.17800
C1233       C  0.26480688  0.84580885  0.24809642    -0.20000
C1234       C  0.26098452  0.85596593  0.22791849     0.20300
C1235       C  0.27624635  0.85436272  0.21087322    -0.33000
C1236       C  0.27187380  0.86363683  0.19028752     0.01000
C1237       C  0.25254693  0.87566717  0.18731294    -0.24300
C1238       C  0.18824389  0.87677540  0.25294667    -0.28900
C1239       C  0.19148436  0.86506866  0.27242936     0.06700
C1240       C  0.21208750  0.85575116  0.27661387    -0.27600
H1241       H  0.18605173  0.89713470  0.21419108     0.11400
H1242       H  0.21411013  0.89663588  0.18556453     0.12500
H1243       H  0.25198577  0.83785433  0.27975720     0.11600
H1244       H  0.27995741  0.83716093  0.25103784     0.10800
H1245       H  0.29113822  0.84514025  0.21341216     0.16200
H1246       H  0.24908882  0.88299135  0.17158667     0.12100
H1247       H  0.17250354  0.88418999  0.24967131     0.15000
H1248       H  0.21481926  0.84679621  0.29163000     0.14800
C1249       C  0.35502207  0.87886736  0.24707721    -0.18100
C1250       C  0.35711961  0.87471183  0.26951735    -0.20300
C1251       C  0.36723780  0.85553433  0.27694076     0.20400
C1252       C  0.37593335  0.84077274  0.26148017    -0.03200
C1253       C  0.37368507  0.84487156  0.23888229    -0.06300
C1254       C  0.36287556  0.86386246  0.23160898     0.20600
C1255       C  0.38123635  0.82935393  0.22360388     0.18800
C1256       C  0.39183623  0.81046261  0.23089401    -0.17800
C1257       C  0.39433133  0.80658396  0.25319656    -0.20000
C1258       C  0.38601692  0.82136848  0.26855840     0.20300
C1259       C  0.38668671  0.81649361  0.29082719    -0.33000
C1260       C  0.37697123  0.83034796  0.30632063     0.01000
C1261       C  0.36787340  0.85026444  0.29939301    -0.24300
C1262       C  0.35892313  0.86674180  0.20912673    -0.28900
C1263       C  0.36513258  0.85051560  0.19412437     0.06700
C1264       C  0.37690977  0.83230443  0.20138682    -0.27600
H1265       H  0.34667162  0.89352433  0.24182665     0.11400
H1266       H  0.35036523  0.88627168  0.28106781     0.12500
H1267       H  0.39776251  0.79844356  0.21935355     0.11600
H1268       H  0.40232069  0.79173146  0.25845328     0.10800
H1269       H  0.39384839  0.80120441  0.29609930     0.16200
H1270       H  0.36008337  0.86087490  0.31121979     0.12100
H1271       H  0.34940084  0.88055872  0.20355210     0.15000
H1272       H  0.38146390  0.81970366  0.18980625     0.14800
C1273       C  0.39194707  0.73820737  0.26826639    -0.18100
C1274       C  0.39211557  0.72291393  0.25137267    -0.20300
C1275       C  0.39393237  0.70058611  0.25603506     0.20400
C1276       C  0.39681810  0.69364966  0.27782256    -0.03200
C1277       C  0.39672242  0.70915374  0.29491164    -0.06300
C1278       C  0.39371046  0.73146300  0.29006987     0.20600
C1279       C  0.39826795  0.70222690  0.31686554     0.18800
C1280       C  0.40080286  0.67990564  0.32140223    -0.17800
C1281       C  0.40089660  0.66452412  0.30445203    -0.20000
C1282       C  0.39846048  0.67116338  0.28263564     0.20300
C1283       C  0.39630298  0.65574695  0.26570335    -0.33000
C1284       C  0.39198447  0.66266306  0.24425043     0.01000
C1285       C  0.39150092  0.68505220  0.23944890    -0.24300
C1286       C  0.39116061  0.74645371  0.30712470    -0.28900
C1287       C  0.39172077  0.73959091  0.32895832     0.06700
C1288       C  0.39596494  0.71759151  0.33383364    -0.27600
H1289       H  0.38961201  0.75527344  0.26431111     0.11400
H1290       H  0.39001049  0.72848406  0.23472287     0.12500
H1291       H  0.40205029  0.67426755  0.33811972     0.11600
H1292       H  0.40220662  0.64736069  0.30847396     0.10800
H1293       H  0.39633048  0.63845452  0.26944435     0.16200
H1294       H  0.38805500  0.69033338  0.22290384     0.12100
H1295       H  0.38753702  0.76337515  0.30343433     0.15000
H1296       H  0.39598413  0.71225308  0.35071172     0.14800
C1297       C  0.23452043  0.82599048  0.40064717    -0.18100
C1298       C  0.25700193  0.82247159  0.40306463    -0.20300
C1299       C  0.27213199  0.83400938  0.39018166     0.20400
C1300       C  0.26457730  0.85011995  0.37553412    -0.03200
C1301       C  0.24184865  0.85392538  0.37334479    -0.06300
C1302       C  0.22676642  0.84127059  0.38546289     0.20600
C1303       C  0.23419533  0.86929995  0.35797256     0.18800
C1304       C  0.24938199  0.88131071  0.34556685    -0.17800
C1305       C  0.27186677  0.87730930  0.34750005    -0.20000
C1306       C  0.27960417  0.86136916  0.36203131     0.20300
C1307       C  0.30185897  0.85547985  0.36232212    -0.33000
C1308       C  0.30925833  0.83879061  0.37621189     0.01000
C1309       C  0.29448509  0.82868885  0.39063551    -0.24300
C1310       C  0.20427964  0.84303049  0.38111714    -0.28900
C1311       C  0.19663690  0.85752178  0.36510480     0.06700
C1312       C  0.21156035  0.87125288  0.35421047    -0.27600
H1313       H  0.22316634  0.81623915  0.41016402     0.11400
H1314       H  0.26251444  0.81008273  0.41440565     0.12500
H1315       H  0.24382862  0.89320715  0.33372756     0.11600
H1316       H  0.28316177  0.88620978  0.33712171     0.10800
H1317       H  0.31321371  0.86300618  0.35094353     0.16200
H1318       H  0.30012759  0.81548937  0.40098122     0.12100
H1319       H  0.19278938  0.83219666  0.38922921     0.15000
H1320       H  0.20570617  0.88203542  0.34145794     0.14800
C1321       C  0.29784166  0.66745242  0.39923334    -0.18100
C1322       C  0.31464240  0.68303554  0.39900369    -0.20300
C1323       C  0.30972838  0.70539748  0.39833790     0.20400
C1324       C  0.28766801  0.71214064  0.39894008    -0.03200
C1325       C  0.27072194  0.69642982  0.39910464    -0.06300
C1326       C  0.27584434  0.67395958  0.39877172     0.20600
C1327       C  0.24869203  0.70322961  0.39819100     0.18800
C1328       C  0.24374035  0.72556916  0.39852204    -0.17800
C1329       C  0.26051897  0.74111458  0.39853642    -0.20000
C1330       C  0.28248950  0.73455948  0.39806893     0.20300
C1331       C  0.29927081  0.74996187  0.39540611    -0.33000
C1332       C  0.32116779  0.74328323  0.39331999     0.01000
C1333       C  0.32638088  0.72105271  0.39577500    -0.24300
C1334       C  0.25895474  0.65850842  0.39654201    -0.28900
C1335       C  0.23722031  0.66538693  0.39401304     0.06700
C1336       C  0.23210040  0.68764509  0.39552934    -0.27600
H1337       H  0.30207071  0.65029369  0.39902350     0.11400
H1338       H  0.33148228  0.67757568  0.39863366     0.12500
H1339       H  0.22690636  0.73102025  0.39802053     0.11600
H1340       H  0.25629475  0.75828037  0.39806450     0.10800
H1341       H  0.29516362  0.76710088  0.39382037     0.16200
H1342       H  0.34322779  0.71577907  0.39423461     0.12100
H1343       H  0.26286457  0.64133106  0.39495342     0.15000
H1344       H  0.21530207  0.69286471  0.39336766     0.14800
C1345       C  0.35825778  0.97418456  0.10424869    -0.18100
C1346       C  0.35752023  0.99705230  0.10350259    -0.20300
C1347       C  0.34394510  0.00873756  0.11785758     0.20400
C1348       C  0.33126513  0.99719249  0.13335424    -0.03200
C1349       C  0.33202709  0.97413122  0.13412551    -0.06300
C1350       C  0.34545145  0.96253764  0.11938640     0.20600
C1351       C  0.31889558  0.96268105  0.14928995     0.18800
C1352       C  0.30562777  0.97430227  0.16391099    -0.17800
C1353       C  0.30488087  0.99708058  0.16315716    -0.20000
C1354       C  0.31737860  0.00863958  0.14775102     0.20300
C1355       C  0.31574535  0.03139769  0.14616367    -0.33000
C1356       C  0.32787156  0.04306890  0.13045994     0.01000
C1357       C  0.34234978  0.03166314  0.11665543    -0.24300
C1358       C  0.34532382  0.93954280  0.11965849    -0.28900
C1359       C  0.33160958  0.92806124  0.13422113     0.06700
C1360       C  0.31874899  0.93980917  0.14919563    -0.27600
H1361       H  0.36864141  0.96559342  0.09278397     0.11400
H1362       H  0.36736625  0.00559210  0.09147509     0.12500
H1363       H  0.29553057  0.96574623  0.17572174     0.11600
H1364       H  0.29423666  0.00564626  0.17439848     0.10800
H1365       H  0.30472938  0.04005110  0.15699648     0.16200
H1366       H  0.35170201  0.04051799  0.10445271     0.12100
H1367       H  0.35514668  0.93061932  0.10794282     0.15000
H1368       H  0.30821823  0.93110351  0.16053006     0.14800
C1369       C  0.19477743  0.16193086  0.10662566    -0.18100
C1370       C  0.17819989  0.17772392  0.10648997    -0.20300
C1371       C  0.18341380  0.20005211  0.10734028     0.20400
C1372       C  0.20562789  0.20650666  0.10746232    -0.03200
C1373       C  0.22234461  0.19057751  0.10767198    -0.06300
C1374       C  0.21690026  0.16814750  0.10764774     0.20600
C1375       C  0.24445874  0.19712822  0.10912025     0.18800
C1376       C  0.24975542  0.21941861  0.10925542    -0.17800
C1377       C  0.23324424  0.23515340  0.10900630    -0.20000
C1378       C  0.21116049  0.22886283  0.10865415     0.20300
C1379       C  0.19456770  0.24446637  0.11083030    -0.33000
C1380       C  0.17251931  0.23810756  0.11183558     0.01000
C1381       C  0.16692223  0.21597152  0.10938584    -0.24300
C1382       C  0.23359890  0.15245139  0.10981275    -0.28900
C1383       C  0.25549282  0.15906096  0.11246205     0.06700
C1384       C  0.26082014  0.18133954  0.11159450    -0.27600
H1385       H  0.19025771  0.14482437  0.10655899     0.11400
H1386       H  0.16126849  0.17244411  0.10634248     0.12500
H1387       H  0.26666473  0.22468660  0.11021749     0.11600
H1388       H  0.23774148  0.25225344  0.10980649     0.10800
H1389       H  0.19883723  0.26151028  0.11305887     0.16200
H1390       H  0.14991067  0.21104969  0.11061096     0.12100
H1391       H  0.22945629  0.13527160  0.11088378     0.15000
H1392       H  0.27769039  0.18639748  0.11384061     0.14800
C1393       C  0.12112820  0.97551200  0.36778271    -0.18100
C1394       C  0.12092619  0.99841306  0.36823116    -0.20300
C1395       C  0.12815869  0.01054691  0.35011181     0.20400
C1396       C  0.13595722  0.99934481  0.33150001    -0.03200
C1397       C  0.13610175  0.97627538  0.33102005    -0.06300
C1398       C  0.12851180  0.96426980  0.34918746     0.20600
C1399       C  0.14353784  0.96525768  0.31218943     0.18800
C1400       C  0.15100751  0.97726916  0.29415481    -0.17800
C1401       C  0.15091448  0.00003490  0.29464783    -0.20000
C1402       C  0.14332184  0.01116857  0.31317078     0.20300
C1403       C  0.14265132  0.03394723  0.31341008    -0.33000
C1404       C  0.13442038  0.04545653  0.33157363     0.01000
C1405       C  0.12740388  0.03359688  0.35005428    -0.24300
C1406       C  0.12809563  0.94129885  0.34824663    -0.28900
C1407       C  0.13510231  0.93022459  0.32930215     0.06700
C1408       C  0.14305688  0.94242671  0.31149554    -0.27600
H1409       H  0.11528330  0.96658523  0.38192281     0.11400
H1410       H  0.11492947  0.00663285  0.38269960     0.12500
H1411       H  0.15676169  0.96905230  0.27958066     0.11600
H1412       H  0.15660096  0.00895009  0.28043385     0.10800
H1413       H  0.14820513  0.04271797  0.29904682     0.16200
H1414       H  0.12100323  0.04221190  0.36412099     0.12100
H1415       H  0.12195136  0.93209396  0.36208707     0.15000
H1416       H  0.14854350  0.93417394  0.29682940     0.14800
C1417       C  0.24674688  0.11527582  0.26299216    -0.18100
C1418       C  0.26258452  0.11462990  0.24648479    -0.20300
C1419       C  0.25695479  0.10793224  0.22530921     0.20400
C1420       C  0.23535464  0.10106420  0.22090655    -0.03200
C1421       C  0.21936711  0.10175164  0.23755234    -0.06300
C1422       C  0.22502892  0.10925878  0.25857864     0.20600
C1423       C  0.19756123  0.09572899  0.23291692     0.18800
C1424       C  0.19209882  0.08836739  0.21192797    -0.17800
C1425       C  0.20794371  0.08767181  0.19543857    -0.20000
C1426       C  0.22950285  0.09434476  0.19966354     0.20300
C1427       C  0.24501958  0.09537212  0.18279328    -0.33000
C1428       C  0.26622319  0.10339986  0.18678047     0.01000
C1429       C  0.27227826  0.10891905  0.20826032    -0.24300
C1430       C  0.20872660  0.11143425  0.27456108    -0.28900
C1431       C  0.18675754  0.10644539  0.26975218     0.06700
C1432       C  0.18143527  0.09798429  0.24907575    -0.27600
H1433       H  0.25137990  0.12096411  0.27909192     0.11400
H1434       H  0.27912242  0.11985571  0.25015420     0.12500
H1435       H  0.17545048  0.08361340  0.20812635     0.11600
H1436       H  0.20320438  0.08241222  0.17923396     0.10800
H1437       H  0.24020492  0.09101000  0.16633778     0.16200
H1438       H  0.28863507  0.11494720  0.21156067     0.12100
H1439       H  0.21304614  0.11783209  0.29048725     0.15000
H1440       H  0.16458836  0.09400719  0.24522602     0.14800
C1441       C  0.10543993  0.16537477  0.20465438    -0.18100
C1442       C  0.10527574  0.18133886  0.18828670    -0.20300
C1443       C  0.10593204  0.20358446  0.19374553     0.20400
C1444       C  0.10573058  0.20982105  0.21592800    -0.03200
C1445       C  0.10585740  0.19373336  0.23243150    -0.06300
C1446       C  0.10621301  0.17138737  0.22675414     0.20600
C1447       C  0.10699342  0.20004668  0.25456792     0.18800
C1448       C  0.10675060  0.22225486  0.26007426    -0.17800
C1449       C  0.10656144  0.23817230  0.24373469    -0.20000
C1450       C  0.10667910  0.23211634  0.22164866     0.20300
C1451       C  0.10903067  0.24790692  0.20525718    -0.33000
C1452       C  0.11062074  0.24173913  0.18320873     0.01000
C1453       C  0.10808754  0.21963093  0.17748857    -0.24300
C1454       C  0.10869669  0.15558365  0.24320234    -0.28900
C1455       C  0.11124937  0.16201575  0.26504323     0.06700
C1456       C  0.10973972  0.18411875  0.27070912    -0.27600
H1457       H  0.10565206  0.14832130  0.20000196     0.11400
H1458       H  0.10535546  0.17627130  0.17134514     0.12500
H1459       H  0.10745156  0.22732264  0.27701153     0.11600
H1460       H  0.10711138  0.25522677  0.24837216     0.10800
H1461       H  0.11070640  0.26494703  0.20974689     0.16200
H1462       H  0.10928572  0.21475889  0.16051951     0.12100
H1463       H  0.11029221  0.13850205  0.23889324     0.15000
H1464       H  0.11197693  0.18896522  0.28759838     0.14800
C1465       C  0.24831970  0.10203184  0.33245391    -0.18100
C1466       C  0.27089608  0.10503050  0.33433351    -0.20300
C1467       C  0.27967087  0.11591645  0.35246476     0.20400
C1468       C  0.26567170  0.12320182  0.36929579    -0.03200
C1469       C  0.24279966  0.12039714  0.36727042    -0.06300
C1470       C  0.23414367  0.10999915  0.34860413     0.20600
C1471       C  0.22856471  0.12911629  0.38322885     0.18800
C1472       C  0.23745340  0.13954049  0.40162219    -0.17800
C1473       C  0.26016340  0.14211030  0.40375286    -0.20000
C1474       C  0.27440753  0.13444838  0.38744817     0.20300
C1475       C  0.29700374  0.13906630  0.38818255    -0.33000
C1476       C  0.31065848  0.13306309  0.37068248     0.01000
C1477       C  0.30201630  0.12090198  0.35330096    -0.24300
C1478       C  0.21144940  0.10888690  0.34574305    -0.28900
C1479       C  0.19726139  0.11859426  0.36087146     0.06700
C1480       C  0.20577758  0.12833242  0.37982051    -0.27600
H1481       H  0.24189559  0.09410668  0.31799729     0.11400
H1482       H  0.28145314  0.09938319  0.32128544     0.12500
H1483       H  0.22681018  0.14624156  0.41408522     0.11600
H1484       H  0.26653716  0.15075530  0.41780138     0.10800
H1485       H  0.30358869  0.14889952  0.40134445     0.16200
H1486       H  0.31253211  0.11653853  0.33970204     0.12100
H1487       H  0.20481445  0.10178480  0.33093857     0.15000
H1488       H  0.19477365  0.13620518  0.39125357     0.14800
C1489       C  0.39949472  0.15680135  0.24837065    -0.18100
C1490       C  0.39601103  0.15266358  0.22617734    -0.20300
C1491       C  0.38141997  0.13622993  0.21958628     0.20400
C1492       C  0.37109636  0.12307097  0.23553860    -0.03200
C1493       C  0.37459038  0.12729445  0.25802090    -0.06300
C1494       C  0.38845824  0.14458462  0.26438975     0.20600
C1495       C  0.36320299  0.11511942  0.27405638     0.18800
C1496       C  0.34908095  0.09826631  0.26738794    -0.17800
C1497       C  0.34565710  0.09405294  0.24513400    -0.20000
C1498       C  0.35623344  0.10662984  0.22906525     0.20300
C1499       C  0.35113528  0.10406787  0.20677247    -0.33000
C1500       C  0.36027676  0.11812241  0.19101879     0.01000
C1501       C  0.37585738  0.13372893  0.19746336    -0.24300
C1502       C  0.39001268  0.15026121  0.28654417    -0.28900
C1503       C  0.37792572  0.13897170  0.30258669     0.06700
C1504       C  0.36512276  0.12088937  0.29631339    -0.27600
H1505       H  0.41026967  0.17008086  0.25300232     0.11400
H1506       H  0.40416566  0.16282995  0.21416543     0.12500
H1507       H  0.34017251  0.08874269  0.27938612     0.11600
H1508       H  0.33416986  0.08138406  0.24049407     0.10800
H1509       H  0.33870416  0.09239869  0.20188542     0.16200
H1510       H  0.38260419  0.14482099  0.18537859     0.12100
H1511       H  0.39966462  0.16437797  0.29123269     0.15000
H1512       H  0.35534557  0.11246182  0.30847936     0.14800
C1513       C  0.34682855  0.49777719  0.21108908    -0.18100
C1514       C  0.34676175  0.47497268  0.21103186    -0.20300
C1515       C  0.35714918  0.46342235  0.19419044     0.20400
C1516       C  0.36734190  0.47494219  0.17698866    -0.03200
C1517       C  0.36745918  0.49801667  0.17707687    -0.06300
C1518       C  0.35734534  0.50942852  0.19434402     0.20600
C1519       C  0.37809477  0.50963195  0.16018635     0.18800
C1520       C  0.38810798  0.49802230  0.14312153    -0.17800
C1521       C  0.38796456  0.47514551  0.14301758    -0.20000
C1522       C  0.37780016  0.46343059  0.15997146     0.20300
C1523       C  0.37828299  0.44046343  0.16046750    -0.33000
C1524       C  0.36861981  0.42888262  0.17789970     0.01000
C1525       C  0.35786121  0.44056770  0.19452768    -0.24300
C1526       C  0.35839261  0.53226815  0.19492591    -0.28900
C1527       C  0.36958238  0.54403793  0.17858777     0.06700
C1528       C  0.37900655  0.53258381  0.16098342    -0.27600
H1529       H  0.33893001  0.50630858  0.22442896     0.11400
H1530       H  0.33880082  0.46636016  0.22432124     0.12500
H1531       H  0.39631269  0.50663629  0.12998500     0.11600
H1532       H  0.39604826  0.46660944  0.12979372     0.10800
H1533       H  0.38668835  0.43165935  0.14761634     0.16200
H1534       H  0.35027633  0.43187457  0.20799480     0.12100
H1535       H  0.35088355  0.54086267  0.20845994     0.15000
H1536       H  0.38760957  0.54145368  0.14826684     0.14800
C1537       C  0.33965691  0.25937117  0.10700139    -0.18100
C1538       C  0.33461703  0.23746564  0.10287800    -0.20300
C1539       C  0.34706780  0.22073089  0.11233022     0.20400
C1540       C  0.36535850  0.22609899  0.12530366    -0.03200
C1541       C  0.37018880  0.24820176  0.12981468    -0.06300
C1542       C  0.35706559  0.26490223  0.12087064     0.20600
C1543       C  0.38719618  0.25349219  0.14445912     0.18800
C1544       C  0.40008523  0.23678770  0.15332860    -0.17800
C1545       C  0.39558898  0.21492524  0.14850507    -0.20000
C1546       C  0.37793032  0.20937904  0.13498006     0.20300
C1547       C  0.37166693  0.18747863  0.13229131    -0.33000
C1548       C  0.35244910  0.18220187  0.12091735     0.01000
C1549       C  0.34067641  0.19881363  0.11031465    -0.24300
C1550       C  0.36056265  0.28666101  0.12721862    -0.28900
C1551       C  0.37630182  0.29172128  0.14312885     0.06700
C1552       C  0.39001228  0.27520493  0.15115317    -0.27600
H1553       H  0.32939138  0.27196063  0.10004959     0.11400
H1554       H  0.32055057  0.23360762  0.09283298     0.12500
H1555       H  0.41324466  0.24059598  0.16453870     0.11600
H1556       H  0.40537817  0.20231390  0.15608112     0.10800
H1557       H  0.38051975  0.17475486  0.14081126     0.16200
H1558       H  0.32575269  0.19476352  0.10163704     0.12100
H1559       H  0.34964125  0.29931161  0.12143384     0.15000
H1560       H  0.40195028  0.27909567  0.16365055     0.14800
C1561       C  0.27223822  0.31447489  0.11165363    -0.18100
C1562       C  0.25000094  0.31006885  0.10869730    -0.20300
C1563       C  0.23411956  0.32372129  0.11799424     0.20400
C1564       C  0.24062736  0.34262725  0.12942719    -0.03200
C1565       C  0.26312092  0.34712821  0.13235147    -0.06300
C1566       C  0.27892802  0.33262576  0.12390467     0.20600
C1567       C  0.26974748  0.36531021  0.14490399     0.18800
C1568       C  0.25379730  0.37929177  0.15361855    -0.17800
C1569       C  0.23148752  0.37481084  0.15073435    -0.20000
C1570       C  0.22470517  0.35627602  0.13906750     0.20300
C1571       C  0.20243419  0.35037898  0.13802557    -0.33000
C1572       C  0.19610130  0.33076953  0.12791007     0.01000
C1573       C  0.21194291  0.31801755  0.11723282    -0.24300
C1574       C  0.30102073  0.33566149  0.12911878    -0.28900
C1575       C  0.30757172  0.35298205  0.14260697     0.06700
C1576       C  0.29206425  0.36829625  0.14973253    -0.27600
H1577       H  0.28419792  0.30325557  0.10499908     0.11400
H1578       H  0.24522500  0.29554425  0.09980373     0.12500
H1579       H  0.25856565  0.39331057  0.16328611     0.11600
H1580       H  0.21953012  0.38548271  0.15823215     0.10800
H1581       H  0.19029985  0.36009774  0.14650954     0.16200
H1582       H  0.20709098  0.30291015  0.10937927     0.12100
H1583       H  0.31301453  0.32372652  0.12388289     0.15000
H1584       H  0.29710858  0.38137679  0.16053709     0.14800
C1585       C  0.41229385  0.30395615  0.29664068    -0.18100
C1586       C  0.41158882  0.28834320  0.31334545    -0.20300
C1587       C  0.40459805  0.26694881  0.30898219     0.20400
C1588       C  0.39970131  0.26084043  0.28728610    -0.03200
C1589       C  0.40058545  0.27651000  0.27044181    -0.06300
C1590       C  0.40612252  0.29838578  0.27528483     0.20600
C1591       C  0.39420580  0.27064572  0.24910254     0.18800
C1592       C  0.38856712  0.24895798  0.24440270    -0.17800
C1593       C  0.38758676  0.23347434  0.26109351    -0.20000
C1594       C  0.39232213  0.23949099  0.28265751     0.20300
C1595       C  0.38835820  0.22499141  0.29982732    -0.33000
C1596       C  0.39181309  0.23146135  0.32150143     0.01000
C1597       C  0.40095613  0.25199276  0.32602642    -0.24300
C1598       C  0.40360857  0.31452326  0.25914538    -0.28900
C1599       C  0.39516568  0.30888638  0.23860068     0.06700
C1600       C  0.39173251  0.28687706  0.23330147    -0.27600
H1601       H  0.41676247  0.32059655  0.30061763     0.11400
H1602       H  0.41558017  0.29326019  0.32985886     0.12500
H1603       H  0.38386570  0.24421741  0.22801980     0.11600
H1604       H  0.38220287  0.21704861  0.25729650     0.10800
H1605       H  0.38155078  0.20897710  0.29645326     0.16200
H1606       H  0.40360546  0.25686467  0.34283224     0.12100
H1607       H  0.40617028  0.33155437  0.26318213     0.15000
H1608       H  0.38537680  0.28262308  0.21732091     0.14800
C1609       C  0.13617051  0.47862116  0.38621421    -0.18100
C1610       C  0.13620599  0.50146978  0.38540909    -0.20300
C1611       C  0.15393925  0.51284290  0.37617902     0.20400
C1612       C  0.17161593  0.50102460  0.36726587    -0.03200
C1613       C  0.17171365  0.47796911  0.36832318    -0.06300
C1614       C  0.15394397  0.46670955  0.37795144     0.20600
C1615       C  0.18983908  0.46623437  0.36022897     0.18800
C1616       C  0.20722061  0.47753863  0.35031061    -0.17800
C1617       C  0.20700184  0.50033503  0.34903781    -0.20000
C1618       C  0.18948705  0.51223923  0.35783845     0.20300
C1619       C  0.18990522  0.53514545  0.35801862    -0.33000
C1620       C  0.17282379  0.54711114  0.36776046     0.01000
C1621       C  0.15462124  0.53578957  0.37631431    -0.24300
C1622       C  0.15449304  0.44380455  0.37954085    -0.28900
C1623       C  0.17291250  0.43216031  0.37230225     0.06700
C1624       C  0.19044392  0.44345489  0.36255507    -0.27600
H1625       H  0.12239095  0.47027594  0.39364468     0.11400
H1626       H  0.12246314  0.51026464  0.39227818     0.12500
H1627       H  0.22114825  0.46875890  0.34380187     0.11600
H1628       H  0.22077783  0.50868166  0.34160172     0.10800
H1629       H  0.20391699  0.54363205  0.35118508     0.16200
H1630       H  0.14131118  0.54478964  0.38376013     0.12100
H1631       H  0.14098366  0.43509356  0.38707589     0.15000
H1632       H  0.20453989  0.43443695  0.35672827     0.14800
C1633       C  0.10220777  0.33560594  0.27145989    -0.18100
C1634       C  0.09984219  0.32982393  0.24943078    -0.20300
C1635       C  0.11417083  0.33823038  0.23352158     0.20400
C1636       C  0.13035607  0.35348044  0.23975971    -0.03200
C1637       C  0.13255945  0.35952096  0.26193961    -0.06300
C1638       C  0.11886824  0.35001135  0.27799154     0.20600
C1639       C  0.14952045  0.37384054  0.26821622     0.18800
C1640       C  0.16342634  0.38280740  0.25229122    -0.17800
C1641       C  0.16138067  0.37668536  0.23041488    -0.20000
C1642       C  0.14526638  0.36164554  0.22407462     0.20300
C1643       C  0.14457232  0.35376758  0.20258498    -0.33000
C1644       C  0.12898683  0.33810602  0.19643504     0.01000
C1645       C  0.11342323  0.33081093  0.21175946    -0.24300
C1646       C  0.12333746  0.35357506  0.30029940    -0.28900
C1647       C  0.14155129  0.36618358  0.30651606     0.06700
C1648       C  0.15358210  0.37739248  0.29041661    -0.27600
H1649       H  0.09150081  0.32818511  0.28348723     0.11400
H1650       H  0.08728611  0.31814817  0.24495343     0.12500
H1651       H  0.17652569  0.39383267  0.25689155     0.11600
H1652       H  0.17285892  0.38318541  0.21856065     0.10800
H1653       H  0.15670917  0.35915206  0.19079336     0.16200
H1654       H  0.10166769  0.31839268  0.20706931     0.12100
H1655       H  0.11422024  0.34466565  0.31263338     0.15000
H1656       H  0.16768848  0.38705602  0.29519793     0.14800
C1657       C  0.14994634  0.22299917  0.39894773    -0.18100
C1658       C  0.15262364  0.24552885  0.40200680    -0.20300
C1659       C  0.14222538  0.26049547  0.38812134     0.20400
C1660       C  0.12835277  0.25263589  0.37144933    -0.03200
C1661       C  0.12558301  0.22990933  0.36842211    -0.06300
C1662       C  0.13677795  0.21497329  0.38196384     0.20600
C1663       C  0.11267994  0.22217277  0.35098391     0.18800
C1664       C  0.10205329  0.23706341  0.33723116    -0.17800
C1665       C  0.10488587  0.25950532  0.34014360    -0.20000
C1666       C  0.11832409  0.26743046  0.35691760     0.20300
C1667       C  0.12305730  0.28976812  0.35847456    -0.33000
C1668       C  0.13762412  0.29760081  0.37436414     0.01000
C1669       C  0.14656436  0.28303584  0.38965175    -0.24300
C1670       C  0.13578270  0.19243418  0.37732692    -0.28900
C1671       C  0.12406151  0.18486482  0.35907972     0.06700
C1672       C  0.11183635  0.19976472  0.34662492    -0.27600
H1673       H  0.15870525  0.21184418  0.40948301     0.11400
H1674       H  0.16338487  0.25123857  0.41484012     0.12500
H1675       H  0.09213963  0.23133936  0.32372892     0.11600
H1676       H  0.09709600  0.27065036  0.32885791     0.10800
H1677       H  0.11657942  0.30095375  0.34638769     0.16200
H1678       H  0.15834686  0.28898954  0.40146211     0.12100
H1679       H  0.14560262  0.18109388  0.38668249     0.15000
H1680       H  0.10294089  0.19400513  0.33242307     0.14800
C1681       C  0.30787289  0.28466931  0.40130156    -0.18100
C1682       C  0.29113523  0.30021901  0.40133216    -0.20300
C1683       C  0.27001004  0.29465087  0.39426604     0.20400
C1684       C  0.26542318  0.27293232  0.38814998    -0.03200
C1685       C  0.28231079  0.25721528  0.38818354    -0.06300
C1686       C  0.30377632  0.26326481  0.39422931     0.20600
C1687       C  0.27792945  0.23574285  0.38116092     0.18800
C1688       C  0.25655307  0.22988900  0.37512686    -0.17800
C1689       C  0.23985770  0.24546943  0.37500907    -0.20000
C1690       C  0.24423861  0.26714542  0.38101299     0.20300
C1691       C  0.22811181  0.28331147  0.37904148    -0.33000
C1692       C  0.23293636  0.30528158  0.38388411     0.01000
C1693       C  0.25372278  0.31063110  0.39222979    -0.24300
C1694       C  0.32093509  0.24816223  0.39202197    -0.28900
C1695       C  0.31691378  0.22713907  0.38365810     0.06700
C1696       C  0.29517484  0.22081530  0.37919429    -0.27600
H1697       H  0.32418748  0.28956913  0.40619205     0.11400
H1698       H  0.29488820  0.31678550  0.40625854     0.12500
H1699       H  0.25288949  0.21341167  0.36983720     0.11600
H1700       H  0.22365389  0.24069527  0.36964339     0.10800
H1701       H  0.21212847  0.27892012  0.37274787     0.16200
H1702       H  0.25760167  0.32743702  0.39618002     0.12100
H1703       H  0.33753897  0.25315152  0.39575244     0.15000
H1704       H  0.29176218  0.20456952  0.37306164     0.14800
C1705       C  0.30814636  0.39165577  0.29214145    -0.18100
C1706       C  0.29172954  0.39369593  0.30800771    -0.20300
C1707       C  0.27099044  0.38440457  0.30465404     0.20400
C1708       C  0.26649607  0.37376631  0.28467472    -0.03200
C1709       C  0.28301973  0.37175185  0.26868364    -0.06300
C1710       C  0.30408866  0.38034519  0.27261839     0.20600
C1711       C  0.27867767  0.36035797  0.24914352     0.18800
C1712       C  0.25775225  0.35169702  0.24541045    -0.17800
C1713       C  0.24144057  0.35357032  0.26128201    -0.20000
C1714       C  0.24581937  0.36415675  0.28109475     0.20300
C1715       C  0.23033673  0.36408471  0.29789198    -0.33000
C1716       C  0.23526360  0.37321641  0.31832797     0.01000
C1717       C  0.25514314  0.38432244  0.32136209    -0.24300
C1718       C  0.32085913  0.37687295  0.25727385    -0.28900
C1719       C  0.31677469  0.36492049  0.23806357     0.06700
C1720       C  0.29548887  0.35717770  0.23395239    -0.27600
H1721       H  0.32418216  0.39849214  0.29536669     0.11400
H1722       H  0.29546117  0.40198315  0.32317403     0.12500
H1723       H  0.25416157  0.34299450  0.23043983     0.11600
H1724       H  0.22558259  0.34620097  0.25831188     0.10800
H1725       H  0.21485219  0.35570392  0.29554560     0.16200
H1726       H  0.25893358  0.39127654  0.33718151     0.12100
H1727       H  0.33716687  0.38304090  0.26052363     0.15000
H1728       H  0.29209357  0.34803694  0.21918742     0.14800
C1729       C  0.49039117  0.63793130  0.15398926    -0.18100
C1730       C  0.51332439  0.63822857  0.15448297    -0.20300
C1731       C  0.52486976  0.62305129  0.16718137     0.20400
C1732       C  0.51312681  0.60727070  0.17930202    -0.03200
C1733       C  0.48999220  0.60697456  0.17880971    -0.06300
C1734       C  0.47855611  0.62243703  0.16616458     0.20600
C1735       C  0.47832770  0.59137821  0.19121868     0.18800
C1736       C  0.48982936  0.57596759  0.20362043    -0.17800
C1737       C  0.51269688  0.57624079  0.20408078    -0.20000
C1738       C  0.52446879  0.59196037  0.19219551     0.20300
C1739       C  0.54735988  0.59283436  0.19331916    -0.33000
C1740       C  0.55924770  0.60874997  0.18167606     0.01000
C1741       C  0.54788451  0.62358986  0.16830179    -0.24300
C1742       C  0.45552450  0.62226303  0.16613043    -0.28900
C1743       C  0.44377685  0.60698484  0.17880271     0.06700
C1744       C  0.45537391  0.59156368  0.19122225    -0.27600
H1745       H  0.48190014  0.64993594  0.14418720     0.11400
H1746       H  0.52203003  0.65046420  0.14506765     0.12500
H1747       H  0.48112761  0.56381017  0.21313461     0.11600
H1748       H  0.52118202  0.56429126  0.21396142     0.10800
H1749       H  0.55594575  0.58114683  0.20344104     0.16200
H1750       H  0.55689110  0.63589652  0.15924924     0.12100
H1751       H  0.44675377  0.63429781  0.15659730     0.15000
H1752       H  0.44652030  0.57966153  0.20093840     0.14800
C1753       C  0.74581941  0.61082291  0.24681081    -0.18100
C1754       C  0.76245908  0.61002784  0.26235867    -0.20300
C1755       C  0.75763291  0.60443545  0.28404946     0.20400
C1756       C  0.73606777  0.59864236  0.29000597    -0.03200
C1757       C  0.71924536  0.59966372  0.27435456    -0.06300
C1758       C  0.72413524  0.60617856  0.25277886     0.20600
C1759       C  0.69742608  0.59522191  0.28054331     0.18800
C1760       C  0.69277921  0.58885886  0.30208956    -0.17800
C1761       C  0.70949965  0.58774614  0.31761517    -0.20000
C1762       C  0.73110120  0.59304927  0.31186214     0.20300
C1763       C  0.74754627  0.59426070  0.32777861    -0.33000
C1764       C  0.76851574  0.60164716  0.32205669     0.01000
C1765       C  0.77370718  0.60590023  0.30014745    -0.24300
C1766       C  0.70715601  0.60894528  0.23779786    -0.28900
C1767       C  0.68526141  0.60573721  0.24414659     0.06700
C1768       C  0.68055196  0.59819091  0.26535179    -0.27600
H1769       H  0.74980928  0.61574900  0.23026295     0.11400
H1770       H  0.77896829  0.61439983  0.25757430     0.12500
H1771       H  0.67613438  0.58530966  0.30707299     0.11600
H1772       H  0.70541210  0.58340348  0.33429745     0.10800
H1773       H  0.74360266  0.59127976  0.34480121     0.16200
H1774       H  0.78997495  0.61162564  0.29589338     0.12100
H1775       H  0.71097340  0.61452866  0.22141102     0.15000
H1776       H  0.66372788  0.59555236  0.27033460     0.14800
C1777       C  0.49120249  0.84315171  0.35813974    -0.18100
C1778       C  0.51419021  0.84408028  0.35839599    -0.20300
C1779       C  0.52640778  0.82866122  0.37019607     0.20400
C1780       C  0.51519959  0.81217942  0.38186133    -0.03200
C1781       C  0.49200417  0.81125253  0.38161664    -0.06300
C1782       C  0.47988184  0.82677431  0.36966840     0.20600
C1783       C  0.48098352  0.79469120  0.39328139     0.18800
C1784       C  0.49308343  0.77925619  0.40507688    -0.17800
C1785       C  0.51593685  0.78013758  0.40527073    -0.20000
C1786       C  0.52714527  0.79650830  0.39373104     0.20300
C1787       C  0.55009343  0.79733489  0.39385549    -0.33000
C1788       C  0.56162715  0.81363165  0.38230446     0.01000
C1789       C  0.54955602  0.82931882  0.37048880    -0.24300
C1790       C  0.45674867  0.82551435  0.36938818    -0.28900
C1791       C  0.44562251  0.80886536  0.38092769     0.06700
C1792       C  0.45805992  0.79366043  0.39290160    -0.27600
H1793       H  0.48227235  0.85524352  0.34885484     0.11400
H1794       H  0.52242335  0.85687102  0.34930349     0.12500
H1795       H  0.48486193  0.76642275  0.41411481     0.11600
H1796       H  0.52486397  0.76796220  0.41445900     0.10800
H1797       H  0.55899628  0.78508154  0.40297114     0.16200
H1798       H  0.55813379  0.84189029  0.36139493     0.12100
H1799       H  0.44746983  0.83736229  0.36011902     0.15000
H1800       H  0.44990119  0.78077229  0.40192875     0.14800
C1801       C  0.61897398  0.74382255  0.26679262    -0.18100
C1802       C  0.61882249  0.72735800  0.25104028    -0.20300
C1803       C  0.61378623  0.70579220  0.25691800     0.20400
C1804       C  0.60778896  0.70088845  0.27864399    -0.03200
C1805       C  0.60795153  0.71754925  0.29458564    -0.06300
C1806       C  0.61411495  0.73896030  0.28865353     0.20600
C1807       C  0.60320921  0.71254375  0.31662926     0.18800
C1808       C  0.59745654  0.69106557  0.32228388    -0.17800
C1809       C  0.59729564  0.67453011  0.30646188    -0.20000
C1810       C  0.60286488  0.67915470  0.28467465     0.20300
C1811       C  0.60483764  0.66234071  0.26909246    -0.33000
C1812       C  0.61212373  0.66711074  0.24782651     0.01000
C1813       C  0.61590021  0.68888824  0.24171848    -0.24300
C1814       C  0.61667229  0.75482300  0.30485803    -0.28900
C1815       C  0.61328386  0.74964676  0.32694346     0.06700
C1816       C  0.60564724  0.72878174  0.33273219    -0.27600
H1817       H  0.62361217  0.76022848  0.26200428     0.11400
H1818       H  0.62332774  0.73136407  0.23439125     0.12500
H1819       H  0.59373068  0.68690867  0.33908234     0.11600
H1820       H  0.59343438  0.65798381  0.31140785     0.10800
H1821       H  0.60227340  0.64549490  0.27388689     0.16200
H1822       H  0.62162447  0.69251039  0.22532760     0.12100
H1823       H  0.62256172  0.77096147  0.30045051     0.15000
H1824       H  0.60328574  0.72475034  0.34981232     0.14800
C1825       C  0.74824495  0.74930964  0.36644114    -0.18100
C1826       C  0.76455770  0.73339098  0.36596245    -0.20300
C1827       C  0.76071115  0.71266969  0.37495080     0.20400
C1828       C  0.74048411  0.70814364  0.38516536    -0.03200
C1829       C  0.72397367  0.72424183  0.38563501    -0.06300
C1830       C  0.72780312  0.74476005  0.37589004     0.20600
C1831       C  0.70339428  0.71951992  0.39506343     0.18800
C1832       C  0.69988782  0.69904790  0.40480452    -0.17800
C1833       C  0.71626750  0.68308360  0.40434562    -0.20000
C1834       C  0.73645495  0.68729831  0.39414397     0.20300
C1835       C  0.75234245  0.67084442  0.39200441    -0.33000
C1836       C  0.77219643  0.67500128  0.38097363     0.01000
C1837       C  0.77645048  0.69618771  0.37312074    -0.24300
C1838       C  0.71087185  0.76006841  0.37489059    -0.28900
C1839       C  0.68987943  0.75507497  0.38303431     0.06700
C1840       C  0.68645632  0.73498823  0.39373933    -0.27600
H1841       H  0.75144589  0.76502237  0.35894957     0.11400
H1842       H  0.78003011  0.73713682  0.35811954     0.12500
H1843       H  0.68427720  0.69518002  0.41229345     0.11600
H1844       H  0.71293858  0.66724417  0.41150486     0.10800
H1845       H  0.74893824  0.65463903  0.39826761     0.16200
H1846       H  0.79167677  0.69966538  0.36467812     0.12100
H1847       H  0.71382968  0.77553235  0.36678544     0.15000
H1848       H  0.67042581  0.73103667  0.40025152     0.14800
C1849       C  0.65363026  0.73704865  0.10244345    -0.18100
C1850       C  0.64955150  0.71513607  0.10757995    -0.20300
C1851       C  0.63619158  0.70960683  0.12542757     0.20400
C1852       C  0.62552128  0.72634450  0.13718815    -0.03200
C1853       C  0.62927090  0.74847742  0.13169794    -0.06300
C1854       C  0.64416627  0.75381522  0.11487668     0.20600
C1855       C  0.61955645  0.76523321  0.14422673     0.18800
C1856       C  0.60527853  0.75968403  0.16134714    -0.17800
C1857       C  0.60191163  0.73780115  0.16704924    -0.20000
C1858       C  0.61252365  0.72107744  0.15552008     0.20300
C1859       C  0.61173062  0.69941977  0.16298519    -0.33000
C1860       C  0.62355447  0.68290514  0.15223476     0.01000
C1861       C  0.63474221  0.68787806  0.13277745    -0.24300
C1862       C  0.65074218  0.77563144  0.11204480    -0.28900
C1863       C  0.64236862  0.79218165  0.12559203     0.06700
C1864       C  0.62578861  0.78707473  0.14070258    -0.27600
H1865       H  0.66491612  0.74087091  0.08931693     0.11400
H1866       H  0.65775419  0.70253038  0.09827142     0.12500
H1867       H  0.59759257  0.77230584  0.17106940     0.11600
H1868       H  0.59170680  0.73400973  0.18103531     0.10800
H1869       H  0.60305562  0.69561684  0.17798158     0.16200
H1870       H  0.64406100  0.67524921  0.12459272     0.12100
H1871       H  0.66360961  0.77953658  0.10045557     0.15000
H1872       H  0.61956475  0.79974161  0.15139089     0.14800
C1873       C  0.60296119  0.83410602  0.23255440    -0.18100
C1874       C  0.59915840  0.83172103  0.25497994    -0.20300
C1875       C  0.61330125  0.84138679  0.27022256     0.20400
C1876       C  0.63074903  0.85461693  0.26281527    -0.03200
C1877       C  0.63463570  0.85697439  0.24014726    -0.06300
C1878       C  0.62099484  0.84617686  0.22497257     0.20600
C1879       C  0.65296566  0.86897069  0.23273323     0.18800
C1880       C  0.66673467  0.87915644  0.24798316    -0.17800
C1881       C  0.66287479  0.87683765  0.27041759    -0.20000
C1882       C  0.64519355  0.86425171  0.27802450     0.20300
C1883       C  0.64267959  0.85977289  0.30043645    -0.33000
C1884       C  0.62641129  0.84518780  0.30767300     0.01000
C1885       C  0.61130805  0.83670939  0.29259493    -0.24300
C1886       C  0.62638109  0.84657612  0.20263520    -0.28900
C1887       C  0.64505297  0.85783240  0.19532236     0.06700
C1888       C  0.65791350  0.86949608  0.21031571    -0.27600
H1889       H  0.59223306  0.82585946  0.22115096     0.11400
H1890       H  0.58560389  0.82163560  0.26040347     0.12500
H1891       H  0.68090736  0.88836955  0.24257177     0.11600
H1892       H  0.67416782  0.88428091  0.28182660     0.10800
H1893       H  0.65468247  0.86585669  0.31195437     0.16200
H1894       H  0.59900214  0.82516655  0.29812994     0.12100
H1895       H  0.61671748  0.83727655  0.19106898     0.15000
H1896       H  0.67259056  0.87776282  0.20466682     0.14800
C1897       C  0.01447467  0.63257899  0.10827588    -0.18100
C1898       C  0.99150472  0.63220920  0.10782680    -0.20300
C1899       C  0.97931197  0.64818547  0.11889027     0.20400
C1900       C  0.99050309  0.66453561  0.13072311    -0.03200
C1901       C  0.01363465  0.66491024  0.13117805    -0.06300
C1902       C  0.02573273  0.64894239  0.11979275     0.20600
C1903       C  0.02462667  0.68154773  0.14272325     0.18800
C1904       C  0.01256482  0.69743222  0.15393929    -0.17800
C1905       C  0.98974178  0.69706261  0.15349375    -0.20000
C1906       C  0.97860788  0.68079250  0.14182986     0.20300
C1907       C  0.95576905  0.68084536  0.14080396    -0.33000
C1908       C  0.94432264  0.66498939  0.12870177     0.01000
C1909       C  0.95621445  0.64843069  0.11802351    -0.24300
C1910       C  0.04880060  0.64997601  0.11973384    -0.28900
C1911       C  0.05979825  0.66695770  0.13073804     0.06700
C1912       C  0.04749400  0.68238801  0.14248725    -0.27600
H1913       H  0.02343786  0.62018145  0.09941970     0.11400
H1914       H  0.98327387  0.61951979  0.09863652     0.12500
H1915       H  0.02079528  0.71031081  0.16287269     0.11600
H1916       H  0.98079039  0.70965083  0.16209563     0.10800
H1917       H  0.94687179  0.69359089  0.14925391     0.16200
H1918       H  0.94758839  0.63618629  0.10858321     0.12100
H1919       H  0.05810986  0.63805086  0.11057206     0.15000
H1920       H  0.05573244  0.69544955  0.15116661     0.14800
C1921       C  0.74963125  0.75048004  0.10231280    -0.18100
C1922       C  0.76627020  0.73486516  0.10206153    -0.20300
C1923       C  0.78820707  0.74118047  0.10452629     0.20400
C1924       C  0.79356100  0.76354238  0.10632055    -0.03200
C1925       C  0.77674687  0.77932885  0.10649240    -0.06300
C1926       C  0.75465376  0.77267413  0.10496984     0.20600
C1927       C  0.78195491  0.80161018  0.10938681     0.18800
C1928       C  0.80395654  0.80793261  0.11147707    -0.17800
C1929       C  0.82061599  0.79227822  0.11138804    -0.20000
C1930       C  0.81557786  0.77002348  0.10916299     0.20300
C1931       C  0.83195183  0.75405249  0.11097409    -0.33000
C1932       C  0.82644263  0.73180449  0.11026601     0.01000
C1933       C  0.80471304  0.72546629  0.10651784    -0.24300
C1934       C  0.73794809  0.78816242  0.10733546    -0.28900
C1935       C  0.74303545  0.81020567  0.11092390     0.06700
C1936       C  0.76501341  0.81697359  0.11133474    -0.27600
H1937       H  0.73276862  0.74512823  0.10103261     0.11400
H1938       H  0.76192076  0.71777487  0.10060322     0.12500
H1939       H  0.80824262  0.82494074  0.11376583     0.11600
H1940       H  0.83740189  0.79753783  0.11361862     0.10800
H1941       H  0.84869236  0.75883772  0.11438366     0.16200
H1942       H  0.80051899  0.70825506  0.10640353     0.12100
H1943       H  0.72096657  0.78296386  0.10744546     0.15000
H1944       H  0.76887059  0.83392382  0.11467597     0.14800
C1945       C  0.72807850  0.65133246  0.11158384    -0.18100
C1946       C  0.75016920  0.65488344  0.10679758    -0.20300
C1947       C  0.76637692  0.64209628  0.11668773     0.20400
C1948       C  0.76025512  0.62475454  0.13060210    -0.03200
C1949       C  0.73786706  0.62117060  0.13546736    -0.06300
C1950       C  0.72181500  0.63495409  0.12634285     0.20600
C1951       C  0.73167772  0.60480314  0.15053389     0.18800
C1952       C  0.74792575  0.59148978  0.15974472    -0.17800
C1953       C  0.77012186  0.59503692  0.15490618    -0.20000
C1954       C  0.77653419  0.61199127  0.14079287     0.20300
C1955       C  0.79882349  0.61746836  0.13793456    -0.33000
C1956       C  0.80482363  0.63587067  0.12548117     0.01000
C1957       C  0.78855225  0.64742875  0.11415775    -0.24300
C1958       C  0.69998267  0.63310646  0.13319287    -0.28900
C1959       C  0.69384837  0.61766793  0.14899116     0.06700
C1960       C  0.70958297  0.60301820  0.15709663    -0.27600
H1961       H  0.71592997  0.66195703  0.10435129     0.11400
H1962       H  0.75462291  0.66819490  0.09600980     0.12500
H1963       H  0.74352939  0.57879743  0.17127688     0.11600
H1964       H  0.78232779  0.58500843  0.16284204     0.10800
H1965       H  0.81126122  0.60871076  0.14696836     0.16200
H1966       H  0.79309996  0.66166101  0.10462122     0.12100
H1967       H  0.68789698  0.64456683  0.12718965     0.15000
H1968       H  0.70494598  0.59139911  0.16964611     0.14800
C1969       C  0.89791897  0.64580654  0.26734394    -0.18100
C1970       C  0.89990400  0.64997664  0.24493669    -0.20300
C1971       C  0.88768331  0.63785664  0.22976978     0.20400
C1972       C  0.87408355  0.62072348  0.23720546    -0.03200
C1973       C  0.87214523  0.61649069  0.25984571    -0.06300
C1974       C  0.88372567  0.62946768  0.27503291     0.20600
C1975       C  0.85741285  0.60035957  0.26732530     0.18800
C1976       C  0.84574537  0.58775022  0.25214176    -0.17800
C1977       C  0.84765516  0.59192827  0.22974838    -0.20000
C1978       C  0.86128353  0.60878404  0.22215472     0.20300
C1979       C  0.86130203  0.61480238  0.19999626    -0.33000
C1980       C  0.87412517  0.63241613  0.19271367     0.01000
C1981       C  0.88778424  0.64344324  0.20749442    -0.24300
C1982       C  0.87953766  0.62704555  0.29752299    -0.28900
C1983       C  0.86347744  0.61231824  0.30487906     0.06700
C1984       C  0.85324788  0.59834742  0.28977963    -0.27600
H1985       H  0.90694756  0.65596649  0.27876121     0.11400
H1986       H  0.91039980  0.66315421  0.23952373     0.12500
H1987       H  0.83445006  0.57522103  0.25763019     0.11600
H1988       H  0.83785982  0.58250719  0.21843452     0.10800
H1989       H  0.85052060  0.60657661  0.18862265     0.16200
H1990       H  0.89728819  0.65732573  0.20190199     0.12100
H1991       H  0.88706501  0.63822163  0.30908924     0.15000
H1992       H  0.84060808  0.58720805  0.29540622     0.14800
C1993       C  0.01502356  0.84164975  0.35849355    -0.18100
C1994       C  0.99208660  0.84176776  0.35781041    -0.20300
C1995       C  0.98097123  0.85478625  0.34257545     0.20400
C1996       C  0.99315692  0.86786632  0.32794460    -0.03200
C1997       C  0.01628482  0.86774608  0.32863103    -0.06300
C1998       C  0.02730246  0.85454875  0.34394976     0.20600
C1999       C  0.02835739  0.88073265  0.31385431     0.18800
C2000       C  0.01730995  0.89383194  0.29869113    -0.17800
C2001       C  0.99446205  0.89395731  0.29801611    -0.20000
C2002       C  0.98226079  0.88097669  0.31249264     0.20300
C2003       C  0.95935775  0.88080608  0.31161590    -0.33000
C2004       C  0.94697462  0.86774197  0.32599611     0.01000
C2005       C  0.95794308  0.85485319  0.34156745    -0.24300
C2006       C  0.05035629  0.85436695  0.34429904    -0.28900
C2007       C  0.06251025  0.86712539  0.32939862     0.06700
C2008       C  0.05127079  0.88031113  0.31432536    -0.27600
H2009       H  0.02316396  0.83139562  0.37035881     0.11400
H2010       H  0.98303403  0.83159899  0.36916934     0.12500
H2011       H  0.02635685  0.90392563  0.28725739     0.11600
H2012       H  0.98632854  0.90414018  0.28608367     0.10800
H2013       H  0.95117022  0.89087301  0.29960920     0.16200
H2014       H  0.94860048  0.84466335  0.35268352     0.12100
H2015       H  0.05880303  0.84407681  0.35592874     0.15000
H2016       H  0.06037121  0.89026837  0.30280366     0.14800
C2017       C  0.88041268  0.75149029  0.25760807    -0.18100
C2018       C  0.87903762  0.73498885  0.24196402    -0.20300
C2019       C  0.88480284  0.73911929  0.22019167     0.20400
C2020       C  0.89290773  0.75989466  0.21421769    -0.03200
C2021       C  0.89439232  0.77659827  0.23003841    -0.06300
C2022       C  0.88764342  0.77242840  0.25166985     0.20600
C2023       C  0.90151485  0.79773779  0.22397170     0.18800
C2024       C  0.90796921  0.80161031  0.20228993    -0.17800
C2025       C  0.90652323  0.78501715  0.18659456    -0.20000
C2026       C  0.89856782  0.76423727  0.19230528     0.20300
C2027       C  0.89529382  0.74804281  0.17636297    -0.33000
C2028       C  0.88623665  0.72762117  0.18209494     0.01000
C2029       C  0.88172184  0.72314702  0.20415568    -0.24300
C2030       C  0.88692919  0.78954281  0.26672497    -0.28900
C2031       C  0.89260676  0.81088803  0.26049575     0.06700
C2032       C  0.90075167  0.81482502  0.23937704    -0.27600
H2033       H  0.87526555  0.74807953  0.27415069     0.11400
H2034       H  0.87284819  0.71903613  0.24683037     0.12500
H2035       H  0.91355585  0.81766406  0.19731043     0.11600
H2036       H  0.91106543  0.78860611  0.16988663     0.10800
H2037       H  0.89895914  0.75164638  0.15944874     0.16200
H2038       H  0.87488790  0.70739467  0.20882070     0.12100
H2039       H  0.88059357  0.78656982  0.28299411     0.15000
H2040       H  0.90481792  0.83135359  0.23448794     0.14800
C2041       C  0.74362823  0.86821735  0.24491398    -0.18100
C2042       C  0.75990662  0.86975204  0.26086704    -0.20300
C2043       C  0.78196554  0.87197880  0.25480087     0.20400
C2044       C  0.78758505  0.87376081  0.23250768    -0.03200
C2045       C  0.77119711  0.87215489  0.21644404    -0.06300
C2046       C  0.74916713  0.86886673  0.22267424     0.20600
C2047       C  0.77699535  0.87291437  0.19415258     0.18800
C2048       C  0.79892975  0.87601683  0.18808030    -0.17800
C2049       C  0.81516397  0.87761330  0.20400118    -0.20000
C2050       C  0.80969806  0.87608703  0.22619936     0.20300
C2051       C  0.82606873  0.87560887  0.24209952    -0.33000
C2052       C  0.82070130  0.87217747  0.26416045     0.01000
C2053       C  0.79858265  0.87123993  0.27051793    -0.24300
C2054       C  0.73323343  0.86553022  0.20656123    -0.28900
C2055       C  0.73909777  0.86551938  0.18435468     0.06700
C2056       C  0.76090053  0.86977818  0.17828826    -0.27600
H2057       H  0.72676186  0.86593364  0.24997014     0.11400
H2058       H  0.75531341  0.86855026  0.27791753     0.12500
H2059       H  0.80358748  0.87668879  0.17102195     0.11600
H2060       H  0.83207741  0.87943157  0.19892573     0.10800
H2061       H  0.84308066  0.87641403  0.23707404     0.16200
H2062       H  0.79433721  0.86881971  0.28753706     0.12100
H2063       H  0.71638714  0.86247625  0.21130839     0.15000
H2064       H  0.76555548  0.86979239  0.16120347     0.14800
C2065       C  0.73630106  0.87639549  0.33417865    -0.18100
C2066       C  0.75887751  0.87891611  0.33134423    -0.20300
C2067       C  0.77355554  0.86934768  0.34607224     0.20400
C2068       C  0.76540231  0.85752952  0.36416343    -0.03200
C2069       C  0.74253720  0.85529794  0.36724104    -0.06300
C2070       C  0.72797904  0.86445576  0.35192291     0.20600
C2071       C  0.73428291  0.84301048  0.38498629     0.18800
C2072       C  0.74903113  0.83334209  0.39963533    -0.17800
C2073       C  0.77168809  0.83525314  0.39638157    -0.20000
C2074       C  0.78006619  0.84708901  0.37855618     0.20300
C2075       C  0.80272953  0.84785232  0.37423898    -0.33000
C2076       C  0.81082636  0.85942412  0.35607645     0.01000
C2077       C  0.79620227  0.87050289  0.34239375    -0.24300
C2078       C  0.70543741  0.86049967  0.35390096    -0.28900
C2079       C  0.69711903  0.84771334  0.37108515     0.06700
C2080       C  0.71153470  0.83957856  0.38699512    -0.27600
H2081       H  0.72533994  0.88345234  0.32223476     0.11400
H2082       H  0.76487416  0.88790026  0.31729889     0.12500
H2083       H  0.74304032  0.82377938  0.41329269     0.11600
H2084       H  0.78266410  0.82713989  0.40761164     0.10800
H2085       H  0.81398087  0.83877513  0.38443052     0.16200
H2086       H  0.80241866  0.87883544  0.32802405     0.12100
H2087       H  0.69438768  0.86637515  0.34138002     0.15000
H2088       H  0.70523288  0.82913426  0.39986481     0.14800
C2089       C  0.85487629  0.73471444  0.39701316    -0.18100
C2090       C  0.85816281  0.75708174  0.39360094    -0.20300
C2091       C  0.87150976  0.76445707  0.37642272     0.20400
C2092       C  0.88246748  0.74907953  0.36316302    -0.03200
C2093       C  0.87912571  0.72650035  0.36658698    -0.06300
C2094       C  0.86488486  0.71930596  0.38332311     0.20600
C2095       C  0.88880747  0.71121646  0.35230049     0.18800
C2096       C  0.90274173  0.71852616  0.33556529    -0.17800
C2097       C  0.90608118  0.74086583  0.33220482    -0.20000
C2098       C  0.89550117  0.75623826  0.34549748     0.20300
C2099       C  0.89631367  0.77851880  0.34037632    -0.33000
C2100       C  0.88412653  0.79373043  0.35253028     0.01000
C2101       C  0.87270884  0.78679338  0.37121487    -0.24300
C2102       C  0.85975780  0.69699114  0.38510577    -0.28900
C2103       C  0.86821775  0.68198649  0.36999185     0.06700
C2104       C  0.88318977  0.68906705  0.35404220    -0.27600
H2105       H  0.84388137  0.72948683  0.40991170     0.11400
H2106       H  0.84961658  0.76862475  0.40391465     0.12500
H2107       H  0.91039652  0.70700211  0.32455899     0.11600
H2108       H  0.91621710  0.74612362  0.31864002     0.10800
H2109       H  0.90503471  0.78386628  0.32588013     0.16200
H2110       H  0.86302946  0.79844326  0.38036975     0.12100
H2111       H  0.84776978  0.69156669  0.39702936     0.15000
H2112       H  0.88938151  0.67750056  0.34216985     0.14800
C2113       C  0.49095867  0.20933806  0.37160729    -0.18100
C2114       C  0.51382233  0.20966713  0.37142170    -0.20300
C2115       C  0.52570895  0.19013127  0.37237704     0.20400
C2116       C  0.51449270  0.17002552  0.37326872    -0.03200
C2117       C  0.49131964  0.16967779  0.37315882    -0.06300
C2118       C  0.47956276  0.18946440  0.37259201     0.20600
C2119       C  0.47994011  0.14960813  0.37382303     0.18800
C2120       C  0.49192884  0.13008382  0.37469236    -0.17800
C2121       C  0.51490379  0.13045003  0.37512183    -0.20000
C2122       C  0.52640155  0.15033385  0.37445212     0.20300
C2123       C  0.54951679  0.15094064  0.37502365    -0.33000
C2124       C  0.56081192  0.17102051  0.37404483     0.01000
C2125       C  0.54862408  0.19046888  0.37260944    -0.24300
C2126       C  0.45662339  0.18910556  0.37327369    -0.28900
C2127       C  0.44506916  0.16924822  0.37407586     0.06700
C2128       C  0.45683508  0.14949298  0.37392568    -0.27600
H2129       H  0.48217666  0.22466530  0.37106497     0.11400
H2130       H  0.52222141  0.22524239  0.37071202     0.12500
H2131       H  0.48352786  0.11450855  0.37524926     0.11600
H2132       H  0.52368752  0.11514172  0.37598696     0.10800
H2133       H  0.55866561  0.13585698  0.37612472     0.16200
H2134       H  0.55698223  0.20608047  0.37202043     0.12100
H2135       H  0.44768231  0.20436685  0.37308569     0.15000
H2136       H  0.44804062  0.13412659  0.37456234     0.14800
C2137       C  0.61040702  0.47778537  0.14770807    -0.18100
C2138       C  0.61034425  0.50061886  0.14885960    -0.20300
C2139       C  0.62064408  0.51148154  0.16622463     0.20400
C2140       C  0.63131682  0.49916865  0.18248518    -0.03200
C2141       C  0.63141875  0.47609301  0.18129588    -0.06300
C2142       C  0.62078707  0.46533751  0.16388824     0.20600
C2143       C  0.64184081  0.46380582  0.19771271     0.18800
C2144       C  0.65237034  0.47464751  0.21495810    -0.17800
C2145       C  0.65224115  0.49746428  0.21615217    -0.20000
C2146       C  0.64160826  0.50987619  0.20010263     0.20300
C2147       C  0.64085178  0.53276343  0.20152690    -0.33000
C2148       C  0.63004097  0.54522575  0.18549628     0.01000
C2149       C  0.62018702  0.53439109  0.16775853    -0.24300
C2150       C  0.62032558  0.44236406  0.16320033    -0.28900
C2151       C  0.63017036  0.42995389  0.17983423     0.06700
C2152       C  0.64117874  0.44090698  0.19685938    -0.27600
H2153       H  0.60215365  0.46984662  0.13422805     0.11400
H2154       H  0.60205962  0.50979280  0.13622730     0.12500
H2155       H  0.66051182  0.46546277  0.22767860     0.11600
H2156       H  0.66029859  0.50539837  0.22975009     0.10800
H2157       H  0.64859494  0.54086667  0.21521812     0.16200
H2158       H  0.61174072  0.54375365  0.15536262     0.12100
H2159       H  0.61176215  0.43417310  0.15005729     0.15000
H2160       H  0.64894801  0.43160035  0.20973426     0.14800
C2161       C  0.48792207  0.38442660  0.20955763    -0.18100
C2162       C  0.51074004  0.38464648  0.20947214    -0.20300
C2163       C  0.52235958  0.37614753  0.19166215     0.20400
C2164       C  0.51093768  0.36744369  0.17365977    -0.03200
C2165       C  0.48783030  0.36723558  0.17373908    -0.06300
C2166       C  0.47636405  0.37573644  0.19181920     0.20600
C2167       C  0.47623138  0.35839163  0.15588682     0.18800
C2168       C  0.48795583  0.35001815  0.13801114    -0.17800
C2169       C  0.51091458  0.35022131  0.13793301    -0.20000
C2170       C  0.52258378  0.35878865  0.15573761     0.20300
C2171       C  0.54563481  0.35865760  0.15611788    -0.33000
C2172       C  0.55708993  0.36712671  0.17421561     0.01000
C2173       C  0.54522163  0.37600781  0.19176283    -0.24300
C2174       C  0.45351663  0.37532692  0.19201108    -0.28900
C2175       C  0.44168895  0.36646590  0.17443653     0.06700
C2176       C  0.45317655  0.35799794  0.15635466    -0.27600
H2177       H  0.47930229  0.39099670  0.22355618     0.11400
H2178       H  0.51931148  0.39136661  0.22341082     0.12500
H2179       H  0.47937069  0.34320895  0.12412517     0.11600
H2180       H  0.51954492  0.34354997  0.12399528     0.10800
H2181       H  0.55460381  0.35181111  0.14247242     0.16200
H2182       H  0.55377598  0.38257092  0.20579620     0.12100
H2183       H  0.44493665  0.38177526  0.20610061     0.15000
H2184       H  0.44423078  0.35109870  0.14273408     0.14800
C2185       C  0.62354877  0.23361085  0.25965878    -0.18100
C2186       C  0.62059061  0.24878704  0.24298095    -0.20300
C2187       C  0.61322370  0.26987422  0.24782601     0.20400
C2188       C  0.60788812  0.27556029  0.26950699    -0.03200
C2189       C  0.61095933  0.26024206  0.28636586    -0.06300
C2190       C  0.61918021  0.23933293  0.28137830     0.20600
C2191       C  0.60679907  0.26615384  0.30824900     0.18800
C2192       C  0.59878923  0.28709756  0.31294642    -0.17800
C2193       C  0.59581718  0.30236538  0.29619227    -0.20000
C2194       C  0.60079830  0.29692685  0.27448516     0.20300
C2195       C  0.60051429  0.31283348  0.25794467    -0.33000
C2196       C  0.60772570  0.30750466  0.23684834     0.01000
C2197       C  0.61279205  0.28583222  0.23161933    -0.24300
C2198       C  0.62367609  0.22471249  0.29821858    -0.28900
C2199       C  0.62039087  0.23067732  0.32010523     0.06700
C2200       C  0.61148249  0.25127254  0.32503780    -0.27600
H2201       H  0.62982044  0.21757922  0.25563446     0.11400
H2202       H  0.62475165  0.24426217  0.22638631     0.12500
H2203       H  0.59539470  0.29186646  0.32963841     0.11600
H2204       H  0.59030910  0.31864531  0.30030698     0.10800
H2205       H  0.59686895  0.32966956  0.26194294     0.16200
H2206       H  0.61836221  0.28186354  0.21526098     0.12100
H2207       H  0.63037613  0.20883319  0.29423501     0.15000
H2208       H  0.60883677  0.25596568  0.34189276     0.14800
C2209       C  0.71445575  0.97568582  0.15152833    -0.18100
C2210       C  0.71456829  0.99852299  0.15128425    -0.20300
C2211       C  0.69718164  0.01011033  0.14187713     0.20400
C2212       C  0.67936591  0.99857011  0.13287380    -0.03200
C2213       C  0.67925748  0.97545527  0.13310919    -0.06300
C2214       C  0.69696008  0.96399708  0.14235150     0.20600
C2215       C  0.66160513  0.96384129  0.12382793     0.18800
C2216       C  0.64413708  0.97547857  0.11461891    -0.17800
C2217       C  0.64423428  0.99835875  0.11440216    -0.20000
C2218       C  0.66180834  0.01009687  0.12339063     0.20300
C2219       C  0.66226844  0.03309961  0.12280441    -0.33000
C2220       C  0.68017802  0.04475956  0.13142702     0.01000
C2221       C  0.69746888  0.03301345  0.14109108    -0.24300
C2222       C  0.69707929  0.94107502  0.14193253    -0.28900
C2223       C  0.67976310  0.92926331  0.13232171     0.06700
C2224       C  0.66191775  0.94084805  0.12357248    -0.27600
H2225       H  0.72816723  0.96715861  0.15872715     0.11400
H2226       H  0.72836635  0.00713175  0.15831551     0.12500
H2227       H  0.63043292  0.96686796  0.10740806     0.11600
H2228       H  0.63060763  0.00688053  0.10704694     0.10800
H2229       H  0.64889771  0.04188077  0.11527044     0.16200
H2230       H  0.71134266  0.04169980  0.14789492     0.12100
H2231       H  0.71089426  0.93243707  0.14881527     0.15000
H2232       H  0.64850469  0.93200425  0.11608994     0.14800
C2233       C  0.60259151  0.14219451  0.25819091    -0.18100
C2234       C  0.60469355  0.13818743  0.23573288    -0.20300
C2235       C  0.62294228  0.12696809  0.22748378     0.20400
C2236       C  0.63879388  0.11894799  0.24216671    -0.03200
C2237       C  0.63688526  0.12335540  0.26479921    -0.06300
C2238       C  0.61883221  0.13529868  0.27283847     0.20600
C2239       C  0.65367898  0.11687674  0.27917583     0.18800
C2240       C  0.67158669  0.10506853  0.27105870    -0.17800
C2241       C  0.67329387  0.10040520  0.24875556    -0.20000
C2242       C  0.65725847  0.10768950  0.23411161     0.20300
C2243       C  0.66013261  0.10522191  0.21147533    -0.33000
C2244       C  0.64523488  0.11449619  0.19672778     0.01000
C2245       C  0.62638737  0.12488441  0.20480938    -0.24300
C2246       C  0.61799726  0.14115176  0.29511228    -0.28900
C2247       C  0.63535633  0.13580564  0.30918271     0.06700
C2248       C  0.65287802  0.12330370  0.30117228    -0.27600
H2249       H  0.58860994  0.15134974  0.26401099     0.11400
H2250       H  0.59230681  0.14438228  0.22474120     0.12500
H2251       H  0.68457903  0.09990854  0.28188918     0.11600
H2252       H  0.68756466  0.09174753  0.24285701     0.10800
H2253       H  0.67496209  0.09775412  0.20526881     0.16200
H2254       H  0.61519100  0.13255452  0.19346282     0.12100
H2255       H  0.60470053  0.15118012  0.30112384     0.15000
H2256       H  0.66636535  0.11935461  0.31194136     0.14800
C2257       C  0.59613557  0.23894361  0.15133075    -0.18100
C2258       C  0.60079771  0.21678645  0.14799943    -0.20300
C2259       C  0.61933999  0.21047671  0.13598708     0.20400
C2260       C  0.63246342  0.22675133  0.12605514    -0.03200
C2261       C  0.62753917  0.24911919  0.12910746    -0.06300
C2262       C  0.60977954  0.25522595  0.14250349     0.20600
C2263       C  0.64138868  0.26533324  0.12012374     0.18800
C2264       C  0.65948331  0.25906482  0.10749152    -0.17800
C2265       C  0.66451894  0.23698808  0.10473914    -0.20000
C2266       C  0.65142771  0.22076535  0.11438197     0.20300
C2267       C  0.65787395  0.19883424  0.11387037    -0.33000
C2268       C  0.64577145  0.18266804  0.12494913     0.01000
C2269       C  0.62591244  0.18841346  0.13508986    -0.24300
C2270       C  0.60709143  0.27731897  0.14821838    -0.28900
C2271       C  0.62170031  0.29337447  0.14038185     0.06700
C2272       C  0.63802621  0.28740130  0.12539806    -0.27600
H2273       H  0.58230267  0.24333092  0.16150168     0.11400
H2274       H  0.59043837  0.20459843  0.15564153     0.12500
H2275       H  0.67030494  0.27125747  0.10051828     0.11600
H2276       H  0.67912840  0.23262465  0.09569609     0.10800
H2277       H  0.67321552  0.19449898  0.10606880     0.16200
H2278       H  0.61668698  0.17610990  0.14392318     0.12100
H2279       H  0.59469576  0.28183137  0.16006925     0.15000
H2280       H  0.64963391  0.29960904  0.11979486     0.14800
C2281       C  0.01500083  0.13810029  0.35929164    -0.18100
C2282       C  0.99211110  0.13894482  0.35822278    -0.20300
C2283       C  0.98051107  0.12471187  0.34447050     0.20400
C2284       C  0.99211050  0.10923121  0.33195461    -0.03200
C2285       C  0.01519135  0.10831231  0.33311385    -0.06300
C2286       C  0.02672808  0.12297201  0.34667288     0.20600
C2287       C  0.02672288  0.09301797  0.32034242     0.18800
C2288       C  0.01514496  0.07846170  0.30695055    -0.17800
C2289       C  0.99232988  0.07941496  0.30575297    -0.20000
C2290       C  0.98069734  0.09490028  0.31796973     0.20300
C2291       C  0.95788624  0.09645637  0.31620486    -0.33000
C2292       C  0.94616469  0.11198507  0.32840371     0.01000
C2293       C  0.95758287  0.12586795  0.34276520    -0.24300
C2294       C  0.04976194  0.12258552  0.34693898    -0.28900
C2295       C  0.06138599  0.10786641  0.33362638     0.06700
C2296       C  0.04964895  0.09286914  0.32072505    -0.27600
H2297       H  0.02355335  0.14946333  0.36982263     0.11400
H2298       H  0.98349288  0.15091374  0.36797568     0.12500
H2299       H  0.02376465  0.06654616  0.29713138     0.11600
H2300       H  0.98379466  0.06819407  0.29505858     0.10800
H2301       H  0.94922505  0.08549661  0.30532554     0.16200
H2302       H  0.94868470  0.13786541  0.35224766     0.12100
H2303       H  0.05861928  0.13419223  0.35695639     0.15000
H2304       H  0.05837501  0.08130273  0.31057062     0.14800
C2305       C  0.89214381  0.97895806  0.36023433    -0.18100
C2306       C  0.89210165  0.00188779  0.36031408    -0.20300
C2307       C  0.88332652  0.01365250  0.34268025     0.20400
C2308       C  0.87425518  0.00207437  0.32494483    -0.03200
C2309       C  0.87426001  0.97893180  0.32488597    -0.06300
C2310       C  0.88338491  0.96726013  0.34253656     0.20600
C2311       C  0.86541109  0.96751045  0.30697260     0.18800
C2312       C  0.85637081  0.97917561  0.28946912    -0.17800
C2313       C  0.85640003  0.00198939  0.28951254    -0.20000
C2314       C  0.86544244  0.01359313  0.30706883     0.20300
C2315       C  0.86608386  0.03649745  0.30682714    -0.33000
C2316       C  0.87540972  0.04834423  0.32420858     0.01000
C2317       C  0.88375848  0.03671454  0.34227216    -0.24300
C2318       C  0.88390547  0.94418892  0.34195210    -0.28900
C2319       C  0.87552565  0.93268110  0.32382178     0.06700
C2320       C  0.86605223  0.94463404  0.30659890    -0.27600
H2321       H  0.89921076  0.97036852  0.37397115     0.11400
H2322       H  0.89912845  0.01042639  0.37410929     0.12500
H2323       H  0.84946437  0.97064188  0.27560519     0.11600
H2324       H  0.84950763  0.01057532  0.27567772     0.10800
H2325       H  0.85946281  0.04511963  0.29287205     0.16200
H2326       H  0.89101212  0.04555531  0.35576410     0.12100
H2327       H  0.89127318  0.93526620  0.35531776     0.15000
H2328       H  0.85938651  0.93612081  0.29259320     0.14800
C2329       C  0.79673589  0.09449106  0.19361816    -0.18100
C2330       C  0.81289345  0.09496735  0.20970204    -0.20300
C2331       C  0.80741566  0.09970573  0.23143245     0.20400
C2332       C  0.78532818  0.10296432  0.23726963    -0.03200
C2333       C  0.76898738  0.10242516  0.22102273    -0.06300
C2334       C  0.77483641  0.09869598  0.19903341     0.20600
C2335       C  0.74700762  0.10672643  0.22660705     0.18800
C2336       C  0.74141481  0.11033734  0.24856500    -0.17800
C2337       C  0.75763273  0.11090144  0.26468459    -0.20000
C2338       C  0.77971531  0.10785898  0.25909749     0.20300
C2339       C  0.79636444  0.11072273  0.27465086    -0.33000
C2340       C  0.81851881  0.10881652  0.26854538     0.01000
C2341       C  0.82378278  0.10237364  0.24713826    -0.24300
C2342       C  0.75892913  0.10033052  0.18268129    -0.28900
C2343       C  0.73727175  0.10605823  0.18791065     0.06700
C2344       C  0.73126744  0.10844339  0.21001618    -0.27600
H2345       H  0.80146587  0.09148078  0.17683715     0.11400
H2346       H  0.82979085  0.09231472  0.20501011     0.12500
H2347       H  0.72457542  0.11344957  0.25318372     0.11600
H2348       H  0.75298595  0.11441585  0.28138808     0.10800
H2349       H  0.79212303  0.11535637  0.29119861     0.16200
H2350       H  0.84076476  0.10061851  0.24229363     0.12100
H2351       H  0.76372300  0.09830445  0.16575951     0.15000
H2352       H  0.71456967  0.11265325  0.21426080     0.14800
C2353       C  0.73623635  0.09906512  0.35292440    -0.18100
C2354       C  0.75863779  0.09534730  0.34965666    -0.20300
C2355       C  0.77435068  0.10871618  0.35973397     0.20400
C2356       C  0.76739448  0.12541580  0.37401635    -0.03200
C2357       C  0.74479702  0.12906087  0.37743887    -0.06300
C2358       C  0.72910339  0.11616925  0.36641625     0.20600
C2359       C  0.73795153  0.14654744  0.39074715     0.18800
C2360       C  0.75359558  0.15961002  0.40126239    -0.17800
C2361       C  0.77591470  0.15612108  0.39773918    -0.20000
C2362       C  0.78295541  0.13942581  0.38374735     0.20300
C2363       C  0.80513558  0.13745277  0.37817616    -0.33000
C2364       C  0.81204329  0.12153741  0.36320554     0.01000
C2365       C  0.79674269  0.10667391  0.35466338    -0.24300
C2366       C  0.70673107  0.12161882  0.36786260    -0.28900
C2367       C  0.70009014  0.14001407  0.37988014     0.06700
C2368       C  0.71568734  0.15171840  0.39203956    -0.27600
H2369       H  0.72448654  0.08899187  0.34433103     0.11400
H2370       H  0.76366072  0.08247365  0.33862412     0.12500
H2371       H  0.74855918  0.17308896  0.41154111     0.11600
H2372       H  0.78765176  0.16695304  0.40538810     0.10800
H2373       H  0.81690196  0.14915417  0.38442732     0.16200
H2374       H  0.80200566  0.09478791  0.34265023     0.12100
H2375       H  0.69482730  0.11280676  0.35814563     0.15000
H2376       H  0.71061745  0.16598837  0.40120534     0.14800
C2377       C  0.86894637  0.50048955  0.38352029    -0.18100
C2378       C  0.86816020  0.47762422  0.38256057    -0.20300
C2379       C  0.84892913  0.46680415  0.37610459     0.20400
C2380       C  0.83043668  0.47921779  0.37023808    -0.03200
C2381       C  0.83111525  0.50225913  0.37153368    -0.06300
C2382       C  0.85045646  0.51298829  0.37823343     0.20600
C2383       C  0.81228930  0.51452165  0.36645480     0.18800
C2384       C  0.79328368  0.50380190  0.35936880    -0.17800
C2385       C  0.79271888  0.48105947  0.35779025    -0.20000
C2386       C  0.81107161  0.46861903  0.36349945     0.20300
C2387       C  0.81011810  0.44576310  0.36315183    -0.33000
C2388       C  0.82810723  0.43315098  0.36985927     0.01000
C2389       C  0.84765127  0.44384177  0.37591542    -0.24300
C2390       C  0.85080550  0.53595603  0.37974655    -0.28900
C2391       C  0.83180896  0.54813200  0.37535978     0.06700
C2392       C  0.81268273  0.53727678  0.36872207    -0.27600
H2393       H  0.88394533  0.50838929  0.38868742     0.11400
H2394       H  0.88255607  0.46839178  0.38705863     0.12500
H2395       H  0.77876776  0.51300982  0.35521594     0.11600
H2396       H  0.77776166  0.47316997  0.35248692     0.10800
H2397       H  0.79502941  0.43780748  0.35831013     0.16200
H2398       H  0.86169317  0.43433760  0.38095229     0.12100
H2399       H  0.86558997  0.54430623  0.38485787     0.15000
H2400       H  0.79812965  0.54665843  0.36503385     0.14800
C2401       C  0.69128999  0.38263942  0.29380195    -0.18100
C2402       C  0.70784612  0.38343645  0.30958485    -0.20300
C2403       C  0.72893949  0.37571089  0.30479037     0.20400
C2404       C  0.73346304  0.36751252  0.28373484    -0.03200
C2405       C  0.71676804  0.36669816  0.26783012    -0.06300
C2406       C  0.69551375  0.37409927  0.27294122     0.20600
C2407       C  0.72126746  0.35804555  0.24696242     0.18800
C2408       C  0.74237833  0.35056626  0.24204691    -0.17800
C2409       C  0.75887608  0.35135526  0.25777587    -0.20000
C2410       C  0.75454921  0.35964653  0.27868179     0.20300
C2411       C  0.77081409  0.35961650  0.29475932    -0.33000
C2412       C  0.76632605  0.36703119  0.31604027     0.01000
C2413       C  0.74540660  0.37545968  0.32081298    -0.24300
C2414       C  0.67880242  0.37236405  0.25726794    -0.28900
C2415       C  0.68310467  0.36329684  0.23655792     0.06700
C2416       C  0.70450790  0.35654824  0.23148470    -0.27600
H2417       H  0.67509082  0.38845498  0.29801382     0.11400
H2418       H  0.70407139  0.38982828  0.32563412     0.12500
H2419       H  0.74607468  0.34387226  0.22609128     0.11600
H2420       H  0.77498284  0.34522858  0.25365973     0.10800
H2421       H  0.78681480  0.35307150  0.29084349     0.16200
H2422       H  0.74172234  0.38118716  0.33714112     0.12100
H2423       H  0.66238069  0.37763379  0.26136327     0.15000
H2424       H  0.70806935  0.34955213  0.21561720     0.14800
C2425       C  0.85676847  0.22033109  0.39965505    -0.18100
C2426       C  0.85193277  0.24237864  0.40301729    -0.20300
C2427       C  0.86113882  0.25849324  0.38950552     0.20400
C2428       C  0.87637708  0.25248182  0.37325894    -0.03200
C2429       C  0.88097820  0.23018417  0.36962622    -0.06300
C2430       C  0.87066019  0.21400512  0.38254076     0.20600
C2431       C  0.89445425  0.22404002  0.35195515     0.18800
C2432       C  0.90451740  0.24020840  0.33911925    -0.17800
C2433       C  0.90024346  0.26230635  0.34294215    -0.20000
C2434       C  0.88568547  0.26858965  0.35953286     0.20300
C2435       C  0.87899557  0.29043316  0.36157034    -0.33000
C2436       C  0.86250770  0.29612593  0.37652482     0.01000
C2437       C  0.85417185  0.28024955  0.39089464    -0.24300
C2438       C  0.87278251  0.19188895  0.37686636    -0.28900
C2439       C  0.88423665  0.18596320  0.35790195     0.06700
C2440       C  0.89603266  0.20194213  0.34624998    -0.27600
H2441       H  0.84877175  0.20816127  0.40976162     0.11400
H2442       H  0.84033531  0.24675808  0.41566813     0.12500
H2443       H  0.91498747  0.23573775  0.32555128     0.11600
H2444       H  0.90755839  0.27442856  0.33227751     0.10800
H2445       H  0.88505466  0.30257907  0.35015190     0.16200
H2446       H  0.84126037  0.28462055  0.40223885     0.12100
H2447       H  0.86346944  0.17962451  0.38568416     0.15000
H2448       H  0.90486483  0.19734215  0.33158306     0.14800
C2449       C  0.74202993  0.23671740  0.39128786    -0.18100
C2450       C  0.75852548  0.25252065  0.39032317    -0.20300
C2451       C  0.75339508  0.27471456  0.39249403     0.20400
C2452       C  0.73158899  0.28103019  0.39669428    -0.03200
C2453       C  0.71489154  0.26506163  0.39754150    -0.06300
C2454       C  0.72014731  0.24287699  0.39431430     0.20600
C2455       C  0.69283620  0.27140063  0.40027599     0.18800
C2456       C  0.68785434  0.29357951  0.40309192    -0.17800
C2457       C  0.70443834  0.30940844  0.40239998    -0.20000
C2458       C  0.72629708  0.30336253  0.39879725     0.20300
C2459       C  0.74275672  0.31924366  0.39604293    -0.33000
C2460       C  0.76416849  0.31297214  0.39057895     0.01000
C2461       C  0.76948222  0.29073638  0.38934288    -0.24300
C2462       C  0.70332967  0.22742656  0.39266552    -0.28900
C2463       C  0.68134583  0.23381110  0.39402758     0.06700
C2464       C  0.67612433  0.25562254  0.39870067    -0.27600
H2465       H  0.74629883  0.21972507  0.38889520     0.11400
H2466       H  0.77520686  0.24743349  0.38723113     0.12500
H2467       H  0.67104929  0.29875232  0.40520554     0.11600
H2468       H  0.70006950  0.32645225  0.40403094     0.10800
H2469       H  0.73862314  0.33642732  0.39658131     0.16200
H2470       H  0.78599682  0.28597460  0.38495741     0.12100
H2471       H  0.70724661  0.21059337  0.38883355     0.15000
H2472       H  0.65911529  0.26055402  0.39933613     0.14800
C2473       C  0.00687862  0.27173573  0.12546580    -0.18100
C2474       C  0.98414959  0.27315128  0.12474004    -0.20300
C2475       C  0.97382678  0.29346591  0.12637654     0.20400
C2476       C  0.98642034  0.31259452  0.12899486    -0.03200
C2477       C  0.00949647  0.31118009  0.12950512    -0.06300
C2478       C  0.01964150  0.29062709  0.12771346     0.20600
C2479       C  0.02238605  0.33022920  0.13157342     0.18800
C2480       C  0.01186584  0.35051772  0.13359983    -0.17800
C2481       C  0.98890276  0.35190195  0.13334581    -0.20000
C2482       C  0.97597799  0.33304193  0.13088712     0.20300
C2483       C  0.95288962  0.33415804  0.12999829    -0.33000
C2484       C  0.94038783  0.31505028  0.12675694     0.01000
C2485       C  0.95109214  0.29485677  0.12520035    -0.24300
C2486       C  0.04241010  0.28916757  0.12797355    -0.28900
C2487       C  0.05559130  0.30792386  0.12964397     0.06700
C2488       C  0.04546809  0.32853042  0.13142832    -0.27600
H2489       H  0.01449489  0.25585200  0.12408279     0.11400
H2490       H  0.97463264  0.25833559  0.12279117     0.12500
H2491       H  0.02140130  0.36534771  0.13531135     0.11600
H2492       H  0.98126372  0.36775617  0.13485953     0.10800
H2493       H  0.94475120  0.34978954  0.13129578     0.16200
H2494       H  0.94163764  0.28000242  0.12311236     0.12100
H2495       H  0.04990927  0.27323284  0.12640793     0.15000
H2496       H  0.05547020  0.34309398  0.13281390     0.14800
C2497       C  0.74038566  0.22836550  0.12706945    -0.18100
C2498       C  0.75551608  0.24546191  0.12734500    -0.20300
C2499       C  0.77714083  0.24198291  0.12053269     0.20400
C2500       C  0.78337398  0.22132419  0.11244679    -0.03200
C2501       C  0.76807271  0.20406096  0.11209261    -0.06300
C2502       C  0.74666343  0.20755963  0.11994257     0.20600
C2503       C  0.77449643  0.18306189  0.10500715     0.18800
C2504       C  0.79595904  0.17983023  0.09749515    -0.17800
C2505       C  0.81115411  0.19697651  0.09785616    -0.20000
C2506       C  0.80513354  0.21763123  0.10574538     0.20300
C2507       C  0.82070775  0.23432220  0.10808915    -0.33000
C2508       C  0.81484340  0.25454483  0.11733500     0.01000
C2509       C  0.79285557  0.25849174  0.12272086    -0.24300
C2510       C  0.73226495  0.18993689  0.12175140    -0.28900
C2511       C  0.73893337  0.16882402  0.11598712     0.06700
C2512       C  0.75971240  0.16549801  0.10678058    -0.27600
H2513       H  0.72394094  0.23125471  0.13303513     0.11400
H2514       H  0.75046973  0.26124504  0.13350456     0.12500
H2515       H  0.80117687  0.16388477  0.09194136     0.11600
H2516       H  0.82778455  0.19391120  0.09255199     0.10800
H2517       H  0.83759456  0.23117302  0.10370180     0.16200
H2518       H  0.78813989  0.27404822  0.12969675     0.12100
H2519       H  0.71615409  0.19239963  0.12880064     0.15000
H2520       H  0.76486601  0.14911986  0.10255679     0.14800
C2521       C  0.91034192  0.18108164  0.20633259    -0.18100
C2522       C  0.90963770  0.19700930  0.18985693    -0.20300
C2523       C  0.89984028  0.21736609  0.19371263     0.20400
C2524       C  0.89144168  0.22195036  0.21473457    -0.03200
C2525       C  0.89217660  0.20589385  0.23135877    -0.06300
C2526       C  0.90127948  0.18515865  0.22703516     0.20600
C2527       C  0.88280124  0.21024844  0.25196299     0.18800
C2528       C  0.87372053  0.23083743  0.25616754    -0.17800
C2529       C  0.87298566  0.24667988  0.23975953    -0.20000
C2530       C  0.88132482  0.24219738  0.21887919     0.20300
C2531       C  0.87869370  0.25719120  0.20182122    -0.33000
C2532       C  0.88595778  0.25236609  0.18055858     0.01000
C2533       C  0.89727246  0.23276501  0.17672790    -0.24300
C2534       C  0.90007509  0.16858900  0.24306554    -0.28900
C2535       C  0.88944878  0.17251280  0.26308750     0.06700
C2536       C  0.88157354  0.19360106  0.26762036    -0.27600
H2537       H  0.91746547  0.16533099  0.20267736     0.11400
H2538       H  0.91624181  0.19316846  0.17389221     0.12500
H2539       H  0.86658851  0.23446764  0.27196227     0.11600
H2540       H  0.86531388  0.26222195  0.24322173     0.10800
H2541       H  0.87008391  0.27235086  0.20485813     0.16200
H2542       H  0.90274473  0.22891281  0.16033679     0.12100
H2543       H  0.90598554  0.15233707  0.23940755     0.15000
H2544       H  0.87345818  0.19673712  0.28307051     0.14800
C2545       C  0.89758230  0.32690201  0.27089618    -0.18100
C2546       C  0.90035176  0.32364749  0.24849010    -0.20300
C2547       C  0.89003315  0.33745582  0.23344136     0.20400
C2548       C  0.87813498  0.35567531  0.24094033    -0.03200
C2549       C  0.87539296  0.35900865  0.26361488    -0.06300
C2550       C  0.88449150  0.34402973  0.27857365     0.20600
C2551       C  0.86209778  0.37622700  0.27123256     0.18800
C2552       C  0.85283118  0.39074106  0.25610918    -0.17800
C2553       C  0.85549451  0.38738850  0.23361495    -0.20000
C2554       C  0.86750197  0.36948764  0.22584028     0.20300
C2555       C  0.86757013  0.36407782  0.20347494    -0.33000
C2556       C  0.87768786  0.34477500  0.19634084     0.01000
C2557       C  0.88986033  0.33226251  0.21120381    -0.24300
C2558       C  0.87890402  0.34535855  0.30073063    -0.28900
C2559       C  0.86444130  0.36147132  0.30816750     0.06700
C2560       C  0.85693685  0.37753859  0.29361647    -0.27600
H2561       H  0.90484678  0.31540865  0.28219538     0.11400
H2562       H  0.90967776  0.30969346  0.24293654     0.12500
H2563       H  0.84270357  0.40412699  0.26164807     0.11600
H2564       H  0.84734881  0.39825482  0.22230427     0.10800
H2565       H  0.85802273  0.37363719  0.19206195     0.16200
H2566       H  0.89772023  0.31739882  0.20567345     0.12100
H2567       H  0.88455523  0.33292571  0.31199153     0.15000
H2568       H  0.84552094  0.38978444  0.29934932     0.14800
C2569       C  0.76578524  0.37982719  0.16546729    -0.18100
C2570       C  0.74314602  0.38201973  0.16793037    -0.20300
C2571       C  0.72882073  0.37184024  0.15322412     0.20400
C2572       C  0.73736900  0.36024032  0.13521461    -0.03200
C2573       C  0.76026015  0.35840769  0.13247818    -0.06300
C2574       C  0.77447207  0.36765928  0.14810050     0.20600
C2575       C  0.76886877  0.34608456  0.11497636     0.18800
C2576       C  0.75449398  0.33638957  0.09995887    -0.17800
C2577       C  0.73180798  0.33785653  0.10291054    -0.20000
C2578       C  0.72308844  0.34929167  0.12076265     0.20300
C2579       C  0.70049978  0.34893301  0.12518607    -0.33000
C2580       C  0.69211238  0.35987261  0.14350495     0.01000
C2581       C  0.70618664  0.37190001  0.15699724    -0.24300
C2582       C  0.79696121  0.36329062  0.14695123    -0.28900
C2583       C  0.80548240  0.35009349  0.13024041     0.06700
C2584       C  0.79154809  0.34235227  0.11373984    -0.27600
H2585       H  0.77649176  0.38709996  0.17754033     0.11400
H2586       H  0.73683419  0.39096097  0.18182875     0.12500
H2587       H  0.76079507  0.32691916  0.08641820     0.11600
H2588       H  0.72108813  0.32950261  0.09156799     0.10800
H2589       H  0.68957302  0.33939358  0.11500974     0.16200
H2590       H  0.69965683  0.37991466  0.17138404     0.12100
H2591       H  0.80770381  0.36898386  0.15983715     0.15000
H2592       H  0.79806150  0.33174252  0.10115850     0.14800
C2593       C  0.62322926  0.85475972  0.51457616    -0.18100
C2594       C  0.62315933  0.85408575  0.49166066    -0.20300
C2595       C  0.63019766  0.83535241  0.48046285     0.20400
C2596       C  0.63791656  0.81735404  0.49257974    -0.03200
C2597       C  0.63798907  0.81803453  0.51570592    -0.06300
C2598       C  0.63034548  0.83671787  0.52680049     0.20600
C2599       C  0.64523887  0.79979130  0.52769678     0.18800
C2600       C  0.65281279  0.78126601  0.51657897    -0.17800
C2601       C  0.65275474  0.78060061  0.49376147    -0.20000
C2602       C  0.64510739  0.79844094  0.48162911     0.20300
C2603       C  0.64407087  0.79741625  0.45877014    -0.33000
C2604       C  0.63573662  0.81494490  0.44643218     0.01000
C2605       C  0.62918795  0.83407079  0.45745880    -0.24300
C2606       C  0.62945930  0.83678715  0.54984469    -0.28900
C2607       C  0.63604318  0.81833041  0.56192390     0.06700
C2608       C  0.64431283  0.80010240  0.55058335    -0.27600
H2609       H  0.61739867  0.86930631  0.52274746     0.11400
H2610       H  0.61727984  0.86813136  0.48269404     0.12500
H2611       H  0.65849748  0.76713823  0.52554554     0.11600
H2612       H  0.65840083  0.76597385  0.48559911     0.10800
H2613       H  0.64934339  0.78263979  0.45061410     0.16200
H2614       H  0.62284343  0.84773899  0.44821903     0.12100
H2615       H  0.62311057  0.85095298  0.55830929     0.15000
H2616       H  0.64958139  0.78580890  0.55955706     0.14800
C2617       C  0.59664950  0.69851116  0.68807587    -0.18100
C2618       C  0.59804642  0.68178013  0.70361828    -0.20300
C2619       C  0.60495951  0.68628135  0.72500933     0.20400
C2620       C  0.60955083  0.70802867  0.73105625    -0.03200
C2621       C  0.60809780  0.72490740  0.71540745    -0.06300
C2622       C  0.60213288  0.72006038  0.69364587     0.20600
C2623       C  0.61387695  0.74641771  0.72125140     0.18800
C2624       C  0.61996193  0.75111739  0.74281626    -0.17800
C2625       C  0.62133033  0.73443563  0.75830311    -0.20000
C2626       C  0.61663859  0.71279490  0.75245134     0.20300
C2627       C  0.61983740  0.69577576  0.76737980    -0.33000
C2628       C  0.61634670  0.67391684  0.76121819     0.01000
C2629       C  0.60827560  0.66936243  0.74016766    -0.24300
C2630       C  0.60327078  0.73651831  0.67760341    -0.28900
C2631       C  0.61077369  0.75747257  0.68315872     0.06700
C2632       C  0.61499150  0.76254368  0.70512228    -0.27600
H2633       H  0.59195960  0.69447180  0.67151952     0.11400
H2634       H  0.59432210  0.66519336  0.69871938     0.12500
H2635       H  0.62436322  0.76760014  0.74753571     0.11600
H2636       H  0.62668113  0.73836635  0.77468697     0.10800
H2637       H  0.62586737  0.69954066  0.78357802     0.16200
H2638       H  0.60543646  0.65260022  0.73526184     0.12100
H2639       H  0.60025980  0.73255628  0.66062901     0.15000
H2640       H  0.62076554  0.77875962  0.70936493     0.14800
C2641       C  0.79564952  0.64318010  0.51087719    -0.18100
C2642       C  0.79631095  0.64278110  0.48808213    -0.20300
C2643       C  0.81313963  0.63173408  0.47711594     0.20400
C2644       C  0.82958535  0.62110721  0.48918446    -0.03200
C2645       C  0.82891519  0.62151010  0.51226341    -0.06300
C2646       C  0.81180840  0.63253816  0.52309660     0.20600
C2647       C  0.84517644  0.61069886  0.52446536     0.18800
C2648       C  0.86199279  0.59964395  0.51341562    -0.17800
C2649       C  0.86265684  0.59924425  0.49052281    -0.20000
C2650       C  0.84651589  0.60989234  0.47821426     0.20300
C2651       C  0.84677089  0.60925790  0.45519259    -0.33000
C2652       C  0.83014107  0.61951854  0.44308130     0.01000
C2653       C  0.81355792  0.63089651  0.45428226    -0.24300
C2654       C  0.81092439  0.63252342  0.54595521    -0.28900
C2655       C  0.82687679  0.62160683  0.55834506     0.06700
C2656       C  0.84412414  0.61089626  0.54744622    -0.27600
H2657       H  0.78240712  0.65170500  0.51895510     0.11400
H2658       H  0.78355219  0.65100808  0.47901464     0.12500
H2659       H  0.87459662  0.59119361  0.52248851     0.11600
H2660       H  0.87574754  0.59049586  0.48244180     0.10800
H2661       H  0.85953296  0.60034024  0.44676324     0.16200
H2662       H  0.80069584  0.63896512  0.44519724     0.12100
H2663       H  0.79759464  0.64086197  0.55410646     0.15000
H2664       H  0.85643574  0.60231321  0.55680362     0.14800
C2665       C  0.74661362  0.75385191  0.64218079    -0.18100
C2666       C  0.76268193  0.73767909  0.64107134    -0.20300
C2667       C  0.75805452  0.71740693  0.63143722     0.20400
C2668       C  0.73725559  0.71360293  0.62225256    -0.03200
C2669       C  0.72104483  0.72993506  0.62335194    -0.06300
C2670       C  0.72566230  0.75002809  0.63364768     0.20600
C2671       C  0.70002690  0.72587793  0.61477181     0.18800
C2672       C  0.69559399  0.70583882  0.60460093    -0.17800
C2673       C  0.71164075  0.68964301  0.60355227    -0.20000
C2674       C  0.73239631  0.69322305  0.61264435     0.20300
C2675       C  0.74804464  0.67649784  0.61307089    -0.33000
C2676       C  0.76846375  0.67983187  0.62310842     0.01000
C2677       C  0.77356268  0.70059674  0.63161621    -0.24300
C2678       C  0.70907529  0.76566210  0.63582918    -0.28900
C2679       C  0.68783806  0.76138842  0.62805201     0.06700
C2680       C  0.68361021  0.74163565  0.61710721    -0.27600
H2681       H  0.75045539  0.76920844  0.65007081     0.11400
H2682       H  0.77860444  0.74086997  0.64815681     0.12500
H2683       H  0.67955883  0.70251690  0.59783907     0.11600
H2684       H  0.70766455  0.67414417  0.59602939     0.10800
H2685       H  0.74397560  0.66063451  0.60638456     0.16200
H2686       H  0.78927099  0.70343387  0.63932030     0.12100
H2687       H  0.71254206  0.78085047  0.64422279     0.15000
H2688       H  0.66734910  0.73821665  0.61093585     0.14800
C2689       C  0.73825828  0.60982208  0.75383348    -0.18100
C2690       C  0.75481502  0.61052467  0.73814060    -0.20300
C2691       C  0.75026612  0.60520158  0.71636131     0.20400
C2692       C  0.72913129  0.59804515  0.71043129    -0.03200
C2693       C  0.71237208  0.59733495  0.72631052    -0.06300
C2694       C  0.71693325  0.60378090  0.74795018     0.20600
C2695       C  0.69083919  0.59142657  0.72029863     0.18800
C2696       C  0.68657732  0.58534204  0.69860322    -0.17800
C2697       C  0.70324871  0.58600422  0.68283056    -0.20000
C2698       C  0.72447524  0.59279690  0.68845515     0.20300
C2699       C  0.74080336  0.59565563  0.67241249    -0.33000
C2700       C  0.76136126  0.60418663  0.67822599     0.01000
C2701       C  0.76618195  0.60814910  0.70024271    -0.24300
C2702       C  0.69986740  0.60540335  0.76304016    -0.28900
C2703       C  0.67825235  0.60083660  0.75688377     0.06700
C2704       C  0.67381954  0.59301761  0.73578093    -0.27600
H2705       H  0.74197148  0.61468889  0.77042958     0.11400
H2706       H  0.77102019  0.61591882  0.74290083     0.12500
H2707       H  0.67020094  0.58069974  0.69368562     0.11600
H2708       H  0.69936690  0.58184387  0.66608493     0.10800
H2709       H  0.73707614  0.59274124  0.65536093     0.16200
H2710       H  0.78212410  0.61458986  0.70467444     0.12100
H2711       H  0.70317885  0.61150910  0.77933348     0.15000
H2712       H  0.65705416  0.58980328  0.73099871     0.14800
C2713       C  0.63789112  0.85482130  0.01382223    -0.18100
C2714       C  0.63802107  0.85484507  0.99091672    -0.20300
C2715       C  0.65695982  0.86083476  0.97930231     0.20400
C2716       C  0.67581794  0.86723534  0.99096467    -0.03200
C2717       C  0.67567928  0.86723273  0.01403875    -0.06300
C2718       C  0.65669039  0.86079969  0.02556895     0.20600
C2719       C  0.69465339  0.87345547  0.02554093     0.18800
C2720       C  0.71349326  0.87979756  0.01403104    -0.17800
C2721       C  0.71362980  0.87979671  0.99124056    -0.20000
C2722       C  0.69493141  0.87345908  0.97959491     0.20300
C2723       C  0.69514208  0.87312833  0.95676498    -0.33000
C2724       C  0.67657144  0.86653860  0.94488029     0.01000
C2725       C  0.65746230  0.86043906  0.95629197    -0.24300
C2726       C  0.65695624  0.86028120  0.04857841    -0.28900
C2727       C  0.67595299  0.86630062  0.06011538     0.06700
C2728       C  0.69461921  0.87303621  0.04836702    -0.27600
H2729       H  0.62311162  0.84995973  0.02235493     0.11400
H2730       H  0.62333818  0.85001395  0.98228190     0.12500
H2731       H  0.72817929  0.88463582  0.02266135     0.11600
H2732       H  0.72842099  0.88464810  0.98271302     0.10800
H2733       H  0.70998396  0.87784453  0.94823240     0.16200
H2734       H  0.64301795  0.85550200  0.94730941     0.12100
H2735       H  0.64245546  0.85518750  0.05746024     0.15000
H2736       H  0.70938760  0.87766164  0.05699160     0.14800
C2737       C  0.59739714  0.83188230  0.75196388    -0.18100
C2738       C  0.60181740  0.83368242  0.77427528    -0.20300
C2739       C  0.61738180  0.84875134  0.78179859     0.20400
C2740       C  0.62778883  0.86294591  0.76680954    -0.03200
C2741       C  0.62342286  0.86102563  0.74423498    -0.06300
C2742       C  0.60856403  0.84503043  0.73680817     0.20600
C2743       C  0.63514397  0.87392919  0.72902671     0.18800
C2744       C  0.65022529  0.88945674  0.73666280    -0.17800
C2745       C  0.65442640  0.89148898  0.75904649    -0.20000
C2746       C  0.64368211  0.87797509  0.77420000     0.20300
C2747       C  0.64956295  0.87819201  0.79637442    -0.33000
C2748       C  0.64017256  0.86318189  0.81100770     0.01000
C2749       C  0.62376183  0.84888270  0.80378882    -0.24300
C2750       C  0.60660933  0.84109696  0.71437154    -0.28900
C2751       C  0.61976280  0.85243557  0.69925414     0.06700
C2752       C  0.63300788  0.86973245  0.70652485    -0.27600
H2753       H  0.58593244  0.81953031  0.74648509     0.11400
H2754       H  0.59362915  0.82275019  0.78556893     0.12500
H2755       H  0.65938455  0.89948098  0.72526506     0.11600
H2756       H  0.66668577  0.90308600  0.76443550     0.10800
H2757       H  0.66264349  0.88881009  0.80191635     0.16200
H2758       H  0.61687930  0.83704734  0.81506541     0.12100
H2759       H  0.59653500  0.82761066  0.70877870     0.15000
H2760       H  0.64347282  0.87820954  0.69496670     0.14800
C2761       C  0.67150145  0.71740025  0.88792083    -0.18100
C2762       C  0.67461962  0.73952424  0.89246391    -0.20300
C2763       C  0.65936956  0.75503406  0.88534013     0.20400
C2764       C  0.64022965  0.74815958  0.87448884    -0.03200
C2765       C  0.63697171  0.72572330  0.87006477    -0.06300
C2766       C  0.65301901  0.71041119  0.87630016     0.20600
C2767       C  0.61839819  0.71879420  0.85823114     0.18800
C2768       C  0.60287928  0.73434161  0.85167035    -0.17800
C2769       C  0.60622799  0.75661407  0.85586822    -0.20000
C2770       C  0.62508808  0.76378763  0.86683818     0.20300
C2771       C  0.62988341  0.78625121  0.86894149    -0.33000
C2772       C  0.64975002  0.79305673  0.87835668     0.01000
C2773       C  0.66377716  0.77734442  0.88748262    -0.24300
C2774       C  0.65102638  0.68862405  0.86963787    -0.28900
C2775       C  0.63314966  0.68178889  0.85698743     0.06700
C2776       C  0.61642663  0.69671364  0.85202058    -0.27600
H2777       H  0.68391480  0.70583067  0.89288488     0.11400
H2778       H  0.68940439  0.74459298  0.90080480     0.12500
H2779       H  0.58851211  0.72936038  0.84260964     0.11600
H2780       H  0.59437569  0.76829966  0.84991431     0.10800
H2781       H  0.61916306  0.79824908  0.86160418     0.16200
H2782       H  0.67911605  0.78251004  0.89474757     0.12100
H2783       H  0.66400221  0.67714584  0.87328870     0.15000
H2784       H  0.60284530  0.69153961  0.84189818     0.14800
C2785       C  0.86903339  0.62744430  0.01026451    -0.18100
C2786       C  0.86892213  0.62819663  0.98735227    -0.20300
C2787       C  0.87212076  0.64804244  0.97625969     0.20400
C2788       C  0.87559801  0.66727650  0.98843977    -0.03200
C2789       C  0.87600092  0.66646760  0.01150965    -0.06300
C2790       C  0.87255438  0.64649162  0.02254948     0.20600
C2791       C  0.87985727  0.68571361  0.02350284     0.18800
C2792       C  0.88314064  0.70554038  0.01251713    -0.17800
C2793       C  0.88250375  0.70638166  0.98975418    -0.20000
C2794       C  0.87869097  0.68738197  0.97759026     0.20300
C2795       C  0.87796124  0.68822449  0.95475889    -0.33000
C2796       C  0.87459800  0.66920083  0.94239921     0.01000
C2797       C  0.87189110  0.64907435  0.95326344    -0.24300
C2798       C  0.87282259  0.64598984  0.04560483    -0.28900
C2799       C  0.87698582  0.66518400  0.05758455     0.06700
C2800       C  0.88043191  0.68489797  0.04629822    -0.27600
H2801       H  0.86643092  0.61193722  0.01837449     0.11400
H2802       H  0.86623055  0.61324537  0.97830129     0.12500
H2803       H  0.88614412  0.72044794  0.02155195     0.11600
H2804       H  0.88500896  0.72190955  0.98165558     0.10800
H2805       H  0.88042299  0.70372257  0.94656173     0.16200
H2806       H  0.86937176  0.63431042  0.94384656     0.12100
H2807       H  0.87021835  0.63071314  0.05415792     0.15000
H2808       H  0.88340982  0.69982426  0.05533469     0.14800
C2809       C  0.90020486  0.64043405  0.73000218    -0.18100
C2810       C  0.90425217  0.64459903  0.75208880    -0.20300
C2811       C  0.89125225  0.63483788  0.76831527     0.20400
C2812       C  0.87488323  0.61970379  0.76234911    -0.03200
C2813       C  0.87062770  0.61570958  0.74006784    -0.06300
C2814       C  0.88300312  0.62655430  0.72380080     0.20600
C2815       C  0.85288392  0.60221926  0.73410607     0.18800
C2816       C  0.84046940  0.59175221  0.75033977    -0.17800
C2817       C  0.84484764  0.59550128  0.77240589    -0.20000
C2818       C  0.86158556  0.60992136  0.77856462     0.20300
C2819       C  0.86398969  0.61618536  0.80044500    -0.33000
C2820       C  0.87875705  0.63280454  0.80603907     0.01000
C2821       C  0.89304312  0.64133101  0.79017336    -0.24300
C2822       C  0.87682453  0.62470705  0.70178490    -0.28900
C2823       C  0.85802933  0.61278105  0.69608227     0.06700
C2824       C  0.84676863  0.60080664  0.71214896    -0.27600
H2825       H  0.90989432  0.64884294  0.71776094     0.11400
H2826       H  0.91696233  0.65615465  0.75644277     0.12500
H2827       H  0.82681875  0.58132347  0.74597204     0.11600
H2828       H  0.83448738  0.58790071  0.78463319     0.10800
H2829       H  0.85274572  0.60991661  0.81267863     0.16200
H2830       H  0.90434339  0.65426711  0.79459038     0.12100
H2831       H  0.88526997  0.63426228  0.68944718     0.15000
H2832       H  0.83218850  0.59170767  0.70771802     0.14800
C2833       C  0.73223920  0.63528111  0.89278399    -0.18100
C2834       C  0.75450893  0.63948982  0.89658261    -0.20300
C2835       C  0.77058234  0.63197975  0.88197370     0.20400
C2836       C  0.76412327  0.61912022  0.86394978    -0.03200
C2837       C  0.74165381  0.61477768  0.86018092    -0.06300
C2838       C  0.72555655  0.62342125  0.87432178     0.20600
C2839       C  0.73526570  0.60304186  0.84142895     0.18800
C2840       C  0.75129239  0.59478325  0.82724559    -0.17800
C2841       C  0.77344966  0.59915123  0.83090764    -0.20000
C2842       C  0.77997572  0.61178993  0.84886142     0.20300
C2843       C  0.80186518  0.61837845  0.85115881    -0.33000
C2844       C  0.80830025  0.63211419  0.86837456     0.01000
C2845       C  0.79275042  0.63820977  0.88423207    -0.24300
C2846       C  0.70318082  0.62144176  0.86885295    -0.28900
C2847       C  0.69689807  0.61129683  0.84920353     0.06700
C2848       C  0.71300570  0.60118395  0.83624817    -0.27600
H2849       H  0.72019040  0.64198101  0.90389327     0.11400
H2850       H  0.75909771  0.64930571  0.91055735     0.12500
H2851       H  0.74663658  0.58568912  0.81280103     0.11600
H2852       H  0.78542850  0.59329869  0.81924819     0.10800
H2853       H  0.81376559  0.61383626  0.83881602     0.16200
H2854       H  0.79755589  0.64913606  0.89729488     0.12100
H2855       H  0.69092022  0.62949550  0.87877839     0.15000
H2856       H  0.70828213  0.59332379  0.82109556     0.14800
C2857       C  0.79975250  0.80386623  0.90056636    -0.18100
C2858       C  0.81560376  0.78746333  0.89883524    -0.20300
C2859       C  0.80996124  0.76663177  0.89105420     0.20400
C2860       C  0.78798462  0.76208286  0.88568299    -0.03200
C2861       C  0.77201013  0.77859731  0.88744061    -0.06300
C2862       C  0.77797599  0.79974216  0.89454435     0.20600
C2863       C  0.75027138  0.77419968  0.88109374     0.18800
C2864       C  0.74443163  0.75324124  0.87396634    -0.17800
C2865       C  0.76021739  0.73689784  0.87231735    -0.20000
C2866       C  0.78207538  0.74126329  0.87775097     0.20300
C2867       C  0.79819819  0.72535692  0.87470409    -0.33000
C2868       C  0.82028621  0.72992481  0.87925233     0.01000
C2869       C  0.82597745  0.75049875  0.88787784    -0.24300
C2870       C  0.76233319  0.81658634  0.89428561    -0.28900
C2871       C  0.74109908  0.81242715  0.88657703     0.06700
C2872       C  0.73500721  0.79111921  0.88076944    -0.27600
H2873       H  0.80465082  0.81994375  0.90609644     0.11400
H2874       H  0.83237749  0.79121645  0.90313215     0.12500
H2875       H  0.72776202  0.74964505  0.86914073     0.11600
H2876       H  0.75541424  0.72096097  0.86630077     0.10800
H2877       H  0.79357087  0.70956396  0.86817002     0.16200
H2878       H  0.84293096  0.75419844  0.89150271     0.12100
H2879       H  0.76706871  0.83312351  0.89846980     0.15000
H2880       H  0.71860700  0.78801088  0.87476246     0.14800
C2881       C  0.85523299  0.73648582  0.60398996    -0.18100
C2882       C  0.85887577  0.75883114  0.60743021    -0.20300
C2883       C  0.87063105  0.76607670  0.62573874     0.20400
C2884       C  0.87959877  0.75050094  0.64019977    -0.03200
C2885       C  0.87568447  0.72799919  0.63689661    -0.06300
C2886       C  0.86312667  0.72095372  0.61888356     0.20600
C2887       C  0.88316529  0.71268743  0.65240405     0.18800
C2888       C  0.89542280  0.71979348  0.67038888    -0.17800
C2889       C  0.89954113  0.74199265  0.67349654    -0.20000
C2890       C  0.89127095  0.75744351  0.65878332     0.20300
C2891       C  0.89301952  0.77971685  0.66331746    -0.33000
C2892       C  0.88242165  0.79526216  0.65018561     0.01000
C2893       C  0.87218289  0.78849700  0.63077943    -0.24300
C2894       C  0.85754048  0.69871643  0.61691063    -0.28900
C2895       C  0.86383244  0.68373675  0.63310948     0.06700
C2896       C  0.87710599  0.69072620  0.65043347    -0.27600
H2897       H  0.84556723  0.73140330  0.59007803     0.11400
H2898       H  0.85189814  0.77048290  0.59612089     0.12500
H2899       H  0.90127343  0.70822979  0.68241563     0.11600
H2900       H  0.90844448  0.74713805  0.68789352     0.10800
H2901       H  0.90096418  0.78488818  0.67828094     0.16200
H2902       H  0.86376070  0.80037974  0.62075342     0.12100
H2903       H  0.84683844  0.69340613  0.60384568     0.15000
H2904       H  0.88166932  0.67920186  0.66307630     0.14800
C2905       C  0.91505303  0.78609091  0.81383648    -0.18100
C2906       C  0.91499481  0.80278246  0.79814051    -0.20300
C2907       C  0.90722185  0.79882897  0.77693502     0.20400
C2908       C  0.90070931  0.77745013  0.77115888    -0.03200
C2909       C  0.90076483  0.76062554  0.78697961    -0.06300
C2910       C  0.90734183  0.76511293  0.80862685     0.20600
C2911       C  0.89278027  0.73971335  0.78148061     0.18800
C2912       C  0.88627876  0.73533849  0.75996337    -0.17800
C2913       C  0.88624853  0.75194730  0.74432419    -0.20000
C2914       C  0.89268869  0.77318736  0.74999422     0.20300
C2915       C  0.88976301  0.79047865  0.73535618    -0.33000
C2916       C  0.89463192  0.81202628  0.74151943     0.01000
C2917       C  0.90439816  0.81604488  0.76189825    -0.24300
C2918       C  0.90463632  0.74902729  0.82491537    -0.28900
C2919       C  0.89491151  0.72885198  0.81975386     0.06700
C2920       C  0.88996092  0.72401342  0.79788263    -0.27600
H2921       H  0.92032853  0.78982486  0.83028530     0.11400
H2922       H  0.92023305  0.81901372  0.80285369     0.12500
H2923       H  0.88034510  0.71928092  0.75544786     0.11600
H2924       H  0.88031136  0.74839270  0.72805300     0.10800
H2925       H  0.88241422  0.78737750  0.71955285     0.16200
H2926       H  0.90810855  0.83267723  0.76667187     0.12100
H2927       H  0.90835033  0.75282830  0.84178192     0.15000
H2928       H  0.88259581  0.70839067  0.79387600     0.14800
C2929       C  0.73601002  0.88071047  0.67493102    -0.18100
C2930       C  0.75871928  0.88266641  0.67702786    -0.20300
C2931       C  0.77271720  0.87315675  0.66154731     0.20400
C2932       C  0.76375130  0.86211041  0.64340945    -0.03200
C2933       C  0.74080290  0.86053147  0.64105000    -0.06300
C2934       C  0.72690992  0.86946594  0.65716063     0.20600
C2935       C  0.73180006  0.84907929  0.62316935     0.18800
C2936       C  0.74581892  0.83953392  0.60772961    -0.17800
C2937       C  0.76855153  0.84072532  0.61030793    -0.20000
C2938       C  0.77769097  0.85174962  0.62820096     0.20300
C2939       C  0.80042556  0.85175300  0.63173560    -0.33000
C2940       C  0.80932727  0.86246423  0.64993723     0.01000
C2941       C  0.79547977  0.87356448  0.66445897    -0.24300
C2942       C  0.70426143  0.86595819  0.65583545    -0.28900
C2943       C  0.69529676  0.85400739  0.63842809     0.06700
C2944       C  0.70901710  0.84629087  0.62173714    -0.27600
H2945       H  0.72556845  0.88763616  0.68744520     0.11400
H2946       H  0.76534797  0.89109645  0.69109673     0.12500
H2947       H  0.73919469  0.83059643  0.59398519     0.11600
H2948       H  0.77899296  0.83269214  0.59848125     0.10800
H2949       H  0.81112246  0.84274430  0.62086428     0.16200
H2950       H  0.80237779  0.88132763  0.67879849     0.12100
H2951       H  0.69365512  0.87161039  0.66887382     0.15000
H2952       H  0.70213130  0.83656715  0.60864528     0.14800
C2953       C  0.74240012  0.86925568  0.75796325    -0.18100
C2954       C  0.75910141  0.86851713  0.74237265    -0.20300
C2955       C  0.78081191  0.87295202  0.74834604     0.20400
C2956       C  0.78567289  0.87910719  0.76998398    -0.03200
C2957       C  0.76881339  0.87989222  0.78570265    -0.06300
C2958       C  0.74717245  0.87444400  0.77974566     0.20600
C2959       C  0.77379922  0.88506956  0.80757202     0.18800
C2960       C  0.79539047  0.89032773  0.81334295    -0.17800
C2961       C  0.81212131  0.88952152  0.79775478    -0.20000
C2962       C  0.80750011  0.88348872  0.77615097     0.20300
C2963       C  0.82440443  0.88082612  0.76086227    -0.33000
C2964       C  0.81974087  0.87359133  0.73958598     0.01000
C2965       C  0.79783632  0.87037895  0.73328906    -0.24300
C2966       C  0.73093795  0.87307815  0.79586823    -0.28900
C2967       C  0.73614351  0.87673091  0.81792009     0.06700
C2968       C  0.75737352  0.88368751  0.82349888    -0.27600
H2969       H  0.72585392  0.86514229  0.75311547     0.11400
H2970       H  0.75512449  0.86386987  0.72577669     0.12500
H2971       H  0.79945205  0.89442627  0.83006034     0.11600
H2972       H  0.82875698  0.89304642  0.80273121     0.10800
H2973       H  0.84122200  0.88342293  0.76582139     0.16200
H2974       H  0.79404056  0.86496511  0.71687795     0.12100
H2975       H  0.71456365  0.86793208  0.79138533     0.15000
H2976       H  0.76150073  0.88672248  0.84043300     0.14800
C2977       C  0.20455341  0.58605615  0.48869359    -0.18100
C2978       C  0.20538730  0.58692720  0.51149959    -0.20300
C2979       C  0.19016799  0.59940679  0.52325773     0.20400
C2980       C  0.17381139  0.61097366  0.51193897    -0.03200
C2981       C  0.17296437  0.61008843  0.48885323    -0.06300
C2982       C  0.18847402  0.59763792  0.47721431     0.20600
C2983       C  0.15676649  0.62182003  0.47743882     0.18800
C2984       C  0.14148442  0.63420134  0.48925591    -0.17800
C2985       C  0.14230661  0.63505527  0.51212145    -0.20000
C2986       C  0.15844897  0.62357072  0.52365011     0.20300
C2987       C  0.15965226  0.62462833  0.54661535    -0.33000
C2988       C  0.17613282  0.61333638  0.55803636     0.01000
C2989       C  0.19120556  0.60065471  0.54611169    -0.24300
C2990       C  0.18782924  0.59715510  0.45430375    -0.28900
C2991       C  0.17189051  0.60897275  0.44266743     0.06700
C2992       C  0.15629815  0.62116364  0.45444589    -0.27600
H2993       H  0.21658390  0.57640344  0.48001800     0.11400
H2994       H  0.21804139  0.57792363  0.51994509     0.12500
H2995       H  0.12893055  0.64332918  0.48079938     0.11600
H2996       H  0.13036358  0.64481836  0.52079089     0.10800
H2997       H  0.14794970  0.63446049  0.55554373     0.16200
H2998       H  0.20393631  0.59179499  0.55460742     0.12100
H2999       H  0.19996864  0.58771978  0.44552555     0.15000
H3000       H  0.14401830  0.63043460  0.44573394     0.14800
C3001       C  0.51664637  0.77898668  0.62715894    -0.18100
C3002       C  0.49395343  0.77806565  0.62917705    -0.20300
C3003       C  0.48165531  0.79732092  0.62977892     0.20400
C3004       C  0.49220540  0.81775682  0.62840497    -0.03200
C3005       C  0.51521478  0.81869857  0.62675006    -0.06300
C3006       C  0.52738435  0.79918208  0.62601033     0.20600
C3007       C  0.52603299  0.83907069  0.62596470     0.18800
C3008       C  0.51358251  0.85831345  0.62633330    -0.17800
C3009       C  0.49066248  0.85736548  0.62752909    -0.20000
C3010       C  0.47978594  0.83715863  0.62864596     0.20300
C3011       C  0.45677321  0.83589375  0.62982136    -0.33000
C3012       C  0.44625678  0.81544221  0.63119713     0.01000
C3013       C  0.45893321  0.79634654  0.63145566    -0.24300
C3014       C  0.55014098  0.80009562  0.62445539    -0.28900
C3015       C  0.56116682  0.82021084  0.62428637     0.06700
C3016       C  0.54906270  0.83972162  0.62503387    -0.27600
H3017       H  0.52582149  0.76389144  0.62666334     0.11400
H3018       H  0.48600092  0.76226928  0.63014864     0.12500
H3019       H  0.52157024  0.87410742  0.62566321     0.11600
H3020       H  0.48145208  0.87244226  0.62768489     0.10800
H3021       H  0.44711415  0.85069753  0.62962221     0.16200
H3022       H  0.45106533  0.78049109  0.63230749     0.12100
H3023       H  0.55937602  0.78501380  0.62411604     0.15000
H3024       H  0.55753180  0.85528761  0.62481074     0.14800
C3025       C  0.38086732  0.85218585  0.51356439    -0.18100
C3026       C  0.38058355  0.85078797  0.49065818    -0.20300
C3027       C  0.37830192  0.83049159  0.48019127     0.20400
C3028       C  0.37610672  0.81148325  0.49307435    -0.03200
C3029       C  0.37672596  0.81284584  0.51612008    -0.06300
C3030       C  0.37908768  0.83329648  0.52649673     0.20600
C3031       C  0.37522759  0.79363830  0.52875236     0.18800
C3032       C  0.37252706  0.77339904  0.51845684    -0.17800
C3033       C  0.37158322  0.77209839  0.49574748    -0.20000
C3034       C  0.37355643  0.79098866  0.48295670     0.20300
C3035       C  0.37334754  0.78954703  0.46019901    -0.33000
C3036       C  0.37607222  0.80819596  0.44700914     0.01000
C3037       C  0.37841846  0.82874148  0.45716315    -0.24300
C3038       C  0.37990219  0.83433638  0.54953739    -0.28900
C3039       C  0.37908061  0.81504667  0.56205183     0.06700
C3040       C  0.37666428  0.79487337  0.55148087    -0.27600
H3041       H  0.38271264  0.86804189  0.52116218     0.11400
H3042       H  0.38222738  0.86559845  0.48112468     0.12500
H3043       H  0.37124043  0.75854116  0.52797679     0.11600
H3044       H  0.36958092  0.75624865  0.48816542     0.10800
H3045       H  0.37153113  0.77360114  0.45275829     0.16200
H3046       H  0.38042283  0.84324789  0.44722577     0.12100
H3047       H  0.38181591  0.84993507  0.55765098     0.15000
H3048       H  0.37574746  0.78001302  0.56107512     0.14800
C3049       C  0.25195034  0.73063516  0.60658792    -0.18100
C3050       C  0.26874224  0.74613306  0.60692573    -0.20300
C3051       C  0.29068707  0.73952033  0.60672264     0.20400
C3052       C  0.29585518  0.71713297  0.60517757    -0.03200
C3053       C  0.27887186  0.70146914  0.60474699    -0.06300
C3054       C  0.25685103  0.70829759  0.60597703     0.20600
C3055       C  0.28393143  0.67899068  0.60439723     0.18800
C3056       C  0.30593554  0.67245694  0.60377733    -0.17800
C3057       C  0.32279098  0.68799817  0.60429306    -0.20000
C3058       C  0.31794414  0.71035590  0.60538289     0.20300
C3059       C  0.33464342  0.72598113  0.60802315    -0.33000
C3060       C  0.32932391  0.74808885  0.61074675     0.01000
C3061       C  0.30747831  0.75481777  0.60943854    -0.24300
C3062       C  0.24018397  0.69268851  0.60792605    -0.28900
C3063       C  0.24517211  0.67037099  0.60852202     0.06700
C3064       C  0.26694956  0.66351861  0.60601769    -0.27600
H3065       H  0.23512281  0.73610539  0.60746738     0.11400
H3066       H  0.26456631  0.76326801  0.60806628     0.12500
H3067       H  0.31012226  0.65529172  0.60354350     0.11600
H3068       H  0.33962370  0.68249580  0.60445212     0.10800
H3069       H  0.35153349  0.72083338  0.60954841     0.16200
H3070       H  0.30349555  0.77187810  0.61191767     0.12100
H3071       H  0.22337903  0.69789159  0.61022231     0.15000
H3072       H  0.27077945  0.64628285  0.60703182     0.14800
C3073       C  0.50837400  0.61607595  0.78402894    -0.18100
C3074       C  0.48556541  0.61538972  0.78552954    -0.20300
C3075       C  0.47518185  0.61664110  0.80594272     0.20400
C3076       C  0.48783110  0.61893127  0.82503071    -0.03200
C3077       C  0.51092141  0.61937221  0.82353335    -0.06300
C3078       C  0.52118090  0.61786391  0.80293775     0.20600
C3079       C  0.52371535  0.62097536  0.84263373     0.18800
C3080       C  0.51322442  0.62272911  0.86298360    -0.17800
C3081       C  0.49031879  0.62255764  0.86444968    -0.20000
C3082       C  0.47743575  0.62046307  0.84560176     0.20300
C3083       C  0.45441064  0.61952634  0.84694376    -0.33000
C3084       C  0.44179301  0.61655080  0.82797614     0.01000
C3085       C  0.45237243  0.61535087  0.80756791    -0.24300
C3086       C  0.54407026  0.61778800  0.80158110    -0.28900
C3087       C  0.55705252  0.61874327  0.82054976     0.06700
C3088       C  0.54671677  0.62048601  0.84104445    -0.27600
H3089       H  0.51600768  0.61493075  0.76809255     0.11400
H3090       H  0.47604106  0.61372237  0.77071498     0.12500
H3091       H  0.52275295  0.62408614  0.87782405     0.11600
H3092       H  0.48268240  0.62379159  0.88037357     0.10800
H3093       H  0.44638354  0.62051228  0.86270456     0.16200
H3094       H  0.44278325  0.61341996  0.79281153     0.12100
H3095       H  0.55177828  0.61638167  0.78569053     0.15000
H3096       H  0.55655166  0.62140485  0.85572601     0.14800
C3097       C  0.24073110  0.61772686  0.74430376    -0.18100
C3098       C  0.25607439  0.61711522  0.76118229    -0.20300
C3099       C  0.27827907  0.61361349  0.75655783     0.20400
C3100       C  0.28500274  0.61001450  0.73477344    -0.03200
C3101       C  0.26955249  0.61073907  0.71774209    -0.06300
C3102       C  0.24737785  0.61493199  0.72254124     0.20600
C3103       C  0.27641418  0.60800370  0.69587980     0.18800
C3104       C  0.29853662  0.60397152  0.69129720    -0.17800
C3105       C  0.31384555  0.60317121  0.70819270    -0.20000
C3106       C  0.30726591  0.60645203  0.72991257     0.20300
C3107       C  0.32269015  0.60707090  0.74673839    -0.33000
C3108       C  0.31627311  0.61171454  0.76833384     0.01000
C3109       C  0.29396837  0.61445775  0.77320642    -0.24300
C3110       C  0.23236498  0.61703670  0.70545973    -0.28900
C3111       C  0.23924275  0.61521971  0.68360880     0.06700
C3112       C  0.26117706  0.61012027  0.67895298    -0.27600
H3113       H  0.22372992  0.62085646  0.74822817     0.11400
H3114       H  0.25062954  0.61980057  0.77781560     0.12500
H3115       H  0.30406238  0.60182409  0.67461475     0.11600
H3116       H  0.33090415  0.60042612  0.70422835     0.10800
H3117       H  0.33985467  0.60497556  0.74278483     0.16200
H3118       H  0.28889654  0.61799552  0.78980016     0.12100
H3119       H  0.21542805  0.62077027  0.70917434     0.15000
H3120       H  0.26659756  0.60871714  0.66214612     0.14800
C3121       C  0.39127722  0.68972425  0.68915045    -0.18100
C3122       C  0.39169811  0.67348507  0.70523222    -0.20300
C3123       C  0.39067814  0.67906591  0.72743350     0.20400
C3124       C  0.38949721  0.70128753  0.73348604    -0.03200
C3125       C  0.38901601  0.71764658  0.71727744    -0.06300
C3126       C  0.38978437  0.71182518  0.69500421     0.20600
C3127       C  0.38704117  0.73977454  0.72337386     0.18800
C3128       C  0.38604572  0.74539317  0.74554602    -0.17800
C3129       C  0.38645919  0.72920279  0.76159797    -0.20000
C3130       C  0.38792030  0.70714093  0.75571520     0.20300
C3131       C  0.38677453  0.69080512  0.77163177    -0.33000
C3132       C  0.38727790  0.66873081  0.76567109     0.01000
C3133       C  0.38977161  0.66286198  0.74366153    -0.24300
C3134       C  0.38830312  0.72814485  0.67899170    -0.28900
C3135       C  0.38561006  0.75015065  0.68498903     0.06700
C3136       C  0.38536694  0.75584626  0.70720644    -0.27600
H3137       H  0.39177246  0.68497886  0.67212822     0.11400
H3138       H  0.39246877  0.65652456  0.70028471     0.12500
H3139       H  0.38454119  0.76231421  0.75047320     0.11600
H3140       H  0.38522696  0.73390596  0.77859812     0.10800
H3141       H  0.38439851  0.69518645  0.78862643     0.16200
H3142       H  0.38949796  0.64576168  0.73910610     0.12100
H3143       H  0.38824891  0.72360408  0.66189504     0.15000
H3144       H  0.38329447  0.77277608  0.71193403     0.14800
C3145       C  0.99219815  0.85328169  0.64133943    -0.18100
C3146       C  0.01515894  0.85393537  0.64124441    -0.20300
C3147       C  0.02670675  0.86197695  0.65937078     0.20400
C3148       C  0.01493503  0.86922512  0.67783255    -0.03200
C3149       C  0.99183454  0.86851571  0.67795082    -0.06300
C3150       C  0.98033959  0.86063436  0.65958000     0.20600
C3151       C  0.98026663  0.87585229  0.69646314     0.18800
C3152       C  0.99169490  0.88352004  0.71474711    -0.17800
C3153       C  0.01449703  0.88426065  0.71461348    -0.20000
C3154       C  0.02622021  0.87730254  0.69620882     0.20300
C3155       C  0.04905501  0.87833372  0.69596900    -0.33000
C3156       C  0.06105637  0.87125522  0.67769918     0.01000
C3157       C  0.04975536  0.86294797  0.65943533    -0.24300
C3158       C  0.95725526  0.86043703  0.65979130    -0.28900
C3159       C  0.94567757  0.86816798  0.67814685     0.06700
C3160       C  0.95743643  0.87560902  0.69642163    -0.27600
H3161       H  0.98371798  0.84711744  0.62710247     0.11400
H3162       H  0.02388721  0.84823496  0.62693158     0.12500
H3163       H  0.98298216  0.88910543  0.72911422     0.11600
H3164       H  0.02296793  0.89038206  0.72888235     0.10800
H3165       H  0.05750458  0.88450457  0.71023943     0.16200
H3166       H  0.05884597  0.85731724  0.64531392     0.12100
H3167       H  0.94837076  0.85452406  0.64568492     0.15000
H3168       H  0.94880533  0.88132855  0.71079380     0.14800
C3169       C  0.10524741  0.72239943  0.65101476    -0.18100
C3170       C  0.10114528  0.74423195  0.65630726    -0.20300
C3171       C  0.11391070  0.76100377  0.64717304     0.20400
C3172       C  0.13016906  0.75583749  0.63162079    -0.03200
C3173       C  0.13456132  0.73379317  0.62657459    -0.06300
C3174       C  0.12235185  0.71696057  0.63669836     0.20600
C3175       C  0.15222544  0.72858387  0.61267320     0.18800
C3176       C  0.16442650  0.74537644  0.60285936    -0.17800
C3177       C  0.15983447  0.76720852  0.60755030    -0.20000
C3178       C  0.14313338  0.77257994  0.62233036     0.20300
C3179       C  0.14032113  0.79420435  0.62923865    -0.33000
C3180       C  0.12553360  0.79909073  0.64608249     0.01000
C3181       C  0.11184439  0.78261361  0.65447029    -0.24300
C3182       C  0.12860182  0.69509169  0.63371938    -0.28900
C3183       C  0.14737255  0.69004502  0.62145369     0.06700
C3184       C  0.15846036  0.70675369  0.61018076    -0.27600
H3185       H  0.09567658  0.70971994  0.65888592     0.11400
H3186       H  0.08849382  0.74794364  0.66815132     0.12500
H3187       H  0.17803228  0.74160756  0.59213755     0.11600
H3188       H  0.16996068  0.77984811  0.60034215     0.10800
H3189       H  0.15116390  0.80684696  0.62310737     0.16200
H3190       H  0.10056197  0.78641452  0.66761926     0.12100
H3191       H  0.12026439  0.68228192  0.64272732     0.15000
H3192       H  0.17301371  0.70287313  0.60079378     0.14800
C3193       C  0.27145944  0.88235917  0.65494273    -0.18100
C3194       C  0.24916942  0.88640501  0.65836341    -0.20300
C3195       C  0.23323123  0.87313977  0.64853156     0.20400
C3196       C  0.23981443  0.85601539  0.63457760    -0.03200
C3197       C  0.26227164  0.85204112  0.63100936    -0.06300
C3198       C  0.27820407  0.86504645  0.64153977     0.20600
C3199       C  0.26875236  0.83426786  0.61789697     0.18800
C3200       C  0.25288026  0.82104322  0.60795663    -0.17800
C3201       C  0.23066625  0.82486571  0.61163176    -0.20000
C3202       C  0.22400230  0.84204607  0.62519406     0.20300
C3203       C  0.20191261  0.84465755  0.63061777    -0.33000
C3204       C  0.19540373  0.86111400  0.64512097     0.01000
C3205       C  0.21093402  0.87579270  0.65346146    -0.24300
C3206       C  0.30047700  0.85962839  0.63955645    -0.28900
C3207       C  0.30678320  0.84116172  0.62752259     0.06700
C3208       C  0.29093826  0.82912728  0.61607663    -0.27600
H3209       H  0.28343059  0.89243965  0.66323106     0.11400
H3210       H  0.24440466  0.89952548  0.66920907     0.12500
H3211       H  0.25766108  0.80730754  0.59790463     0.11600
H3212       H  0.21870872  0.81401246  0.60434257     0.10800
H3213       H  0.18987091  0.83310325  0.62459385     0.16200
H3214       H  0.20587106  0.88807233  0.66515529     0.12100
H3215       H  0.31264357  0.86863528  0.64876943     0.15000
H3216       H  0.29581241  0.81478369  0.60692513     0.14800
C3217       C  0.12442030  0.71098370  0.01437728    -0.18100
C3218       C  0.12489517  0.71176981  0.99158783    -0.20300
C3219       C  0.12585971  0.69244928  0.97934512     0.20400
C3220       C  0.12636004  0.67212099  0.99011802    -0.03200
C3221       C  0.12620238  0.67133738  0.01319585    -0.06300
C3222       C  0.12510309  0.69087832  0.02530588     0.20600
C3223       C  0.12714302  0.65106126  0.02412819     0.18800
C3224       C  0.12784944  0.63175963  0.01178604    -0.17800
C3225       C  0.12768034  0.63252896  0.98888900    -0.20000
C3226       C  0.12702228  0.65261983  0.97785575     0.20300
C3227       C  0.12707325  0.65360590  0.95484133    -0.33000
C3228       C  0.12690471  0.67389163  0.94401871     0.01000
C3229       C  0.12631035  0.69318563  0.95650718    -0.24300
C3230       C  0.12467558  0.69002843  0.04814248    -0.28900
C3231       C  0.12578405  0.66996562  0.05924780     0.06700
C3232       C  0.12724451  0.65050047  0.04715176    -0.27600
H3233       H  0.12359575  0.72612767  0.02346724     0.11400
H3234       H  0.12445007  0.72750228  0.98352987     0.12500
H3235       H  0.12847041  0.61603831  0.01984711     0.11600
H3236       H  0.12818129  0.61737591  0.97979765     0.10800
H3237       H  0.12750986  0.63866091  0.94539503     0.16200
H3238       H  0.12591463  0.70892156  0.94843013     0.12100
H3239       H  0.12373282  0.70510744  0.05735792     0.15000
H3240       H  0.12795532  0.63499053  0.05562559     0.14800
C3241       C  0.01193384  0.68829874  0.91141263    -0.18100
C3242       C  0.98912916  0.68697384  0.91163142    -0.20300
C3243       C  0.97804218  0.67497760  0.89558192     0.20400
C3244       C  0.99000112  0.66381630  0.87937793    -0.03200
C3245       C  0.01311705  0.66511524  0.87919278    -0.06300
C3246       C  0.02404358  0.67760792  0.89518125     0.20600
C3247       C  0.02524727  0.65421991  0.86289378     0.18800
C3248       C  0.01405998  0.64200270  0.84699873    -0.17800
C3249       C  0.99110828  0.64078708  0.84713370    -0.20000
C3250       C  0.97886613  0.65171999  0.86318860     0.20300
C3251       C  0.95574940  0.65126256  0.86310987    -0.33000
C3252       C  0.94378369  0.66303028  0.87888030     0.01000
C3253       C  0.95516823  0.67445513  0.89523891    -0.24300
C3254       C  0.04687680  0.67944329  0.89459168    -0.28900
C3255       C  0.05919767  0.66882300  0.87837885     0.06700
C3256       C  0.04827123  0.65598913  0.86267623    -0.27600
H3257       H  0.02010311  0.69787451  0.92385438     0.11400
H3258       H  0.98013938  0.69557589  0.92420605     0.12500
H3259       H  0.02305289  0.63353200  0.83434026     0.11600
H3260       H  0.98292091  0.63143036  0.83454358     0.10800
H3261       H  0.94712745  0.64248161  0.85038566     0.16200
H3262       H  0.94615662  0.68338020  0.90759084     0.12100
H3263       H  0.05509882  0.68919933  0.90687238     0.15000
H3264       H  0.05761389  0.64779777  0.85007200     0.14800
C3265       C  0.16205702  0.60329073  0.74651442    -0.18100
C3266       C  0.15816703  0.60649689  0.76883833    -0.20300
C3267       C  0.14267254  0.62183664  0.77590831     0.20400
C3268       C  0.13039765  0.63348627  0.76024227    -0.03200
C3269       C  0.13436949  0.63029366  0.73769183    -0.06300
C3270       C  0.15053589  0.61536104  0.73081668     0.20600
C3271       C  0.12311751  0.64300622  0.72210188     0.18800
C3272       C  0.10721398  0.65794032  0.72912772    -0.17800
C3273       C  0.10325708  0.66106470  0.75142350    -0.20000
C3274       C  0.11516644  0.64935228  0.76708618     0.20300
C3275       C  0.11327941  0.65436173  0.78935984    -0.33000
C3276       C  0.12644316  0.64381668  0.80491841     0.01000
C3277       C  0.14036942  0.62686240  0.79823626    -0.24300
C3278       C  0.15574951  0.61368073  0.70848685    -0.28900
C3279       C  0.14540336  0.62712126  0.69306577     0.06700
C3280       C  0.12884944  0.64146086  0.69990723    -0.27600
H3281       H  0.17456984  0.59181772  0.74153937     0.11400
H3282       H  0.16778641  0.59745859  0.78058981     0.12500
H3283       H  0.09833010  0.66772198  0.71739634     0.11600
H3284       H  0.09143639  0.67324163  0.75642811     0.10800
H3285       H  0.10271155  0.66761396  0.79448596     0.16200
H3286       H  0.15087375  0.61904917  0.81013378     0.12100
H3287       H  0.16891922  0.60305079  0.70326615     0.15000
H3288       H  0.12117781  0.65211561  0.68805300     0.14800
C3289       C  0.25445738  0.60492990  0.83118549    -0.18100
C3290       C  0.23214629  0.60955139  0.83295479    -0.20300
C3291       C  0.22382108  0.61963914  0.85176521     0.20400
C3292       C  0.23790790  0.62425487  0.86940766    -0.03200
C3293       C  0.26054565  0.61985337  0.86749553    -0.06300
C3294       C  0.26884855  0.61049719  0.84811870     0.20600
C3295       C  0.27502527  0.62614972  0.88431542     0.18800
C3296       C  0.26649733  0.63548595  0.90346655    -0.17800
C3297       C  0.24399956  0.63951639  0.90551592    -0.20000
C3298       C  0.22962357  0.63452770  0.88834855     0.20300
C3299       C  0.20746832  0.64088026  0.88913358    -0.33000
C3300       C  0.19386905  0.63767212  0.87090917     0.01000
C3301       C  0.20197097  0.62643191  0.85263561    -0.24300
C3302       C  0.29151294  0.60829924  0.84534404    -0.28900
C3303       C  0.30607206  0.61599310  0.86128426     0.06700
C3304       C  0.29779164  0.62437335  0.88100609    -0.27600
H3305       H  0.26057873  0.59774080  0.81621902     0.11400
H3306       H  0.22150557  0.60584844  0.81930957     0.12500
H3307       H  0.27731851  0.64029356  0.91661137     0.11600
H3308       H  0.23797092  0.64732090  0.92020481     0.10800
H3309       H  0.20131500  0.64983855  0.90310784     0.16200
H3310       H  0.19147948  0.62401865  0.83856690     0.12100
H3311       H  0.29792139  0.60233949  0.82993835     0.15000
H3312       H  0.30903600  0.63082276  0.89307043     0.14800
C3313       C  0.11573447  0.75572359  0.74664589    -0.18100
C3314       C  0.11632936  0.73991076  0.76303857    -0.20300
C3315       C  0.11147653  0.74552038  0.78470113     0.20400
C3316       C  0.10466232  0.76692675  0.78976850    -0.03200
C3317       C  0.10411158  0.78292571  0.77320806    -0.06300
C3318       C  0.11031885  0.77735806  0.75171973     0.20600
C3319       C  0.09885495  0.80476035  0.77843249     0.18800
C3320       C  0.09299237  0.81005777  0.79996138    -0.17800
C3321       C  0.09344472  0.79414486  0.81639357    -0.20000
C3322       C  0.09981812  0.77267578  0.81158816     0.20300
C3323       C  0.10278342  0.75721640  0.82830862    -0.33000
C3324       C  0.11108245  0.73645349  0.82334813     0.01000
C3325       C  0.11467387  0.73047742  0.80154402    -0.24300
C3326       C  0.11262614  0.79377757  0.73605644    -0.28900
C3327       C  0.10909615  0.81569776  0.74158904     0.06700
C3328       C  0.10114411  0.82108599  0.76241540    -0.27600
H3329       H  0.12037907  0.75122796  0.73017167     0.11400
H3330       H  0.12138420  0.72347744  0.75891155     0.12500
H3331       H  0.08882599  0.82668354  0.80425470     0.11600
H3332       H  0.08958139  0.79882648  0.83301375     0.10800
H3333       H  0.10022602  0.76180186  0.84521532     0.16200
H3334       H  0.12104428  0.71438228  0.79783498     0.12100
H3335       H  0.11874466  0.78973098  0.71991698     0.15000
H3336       H  0.09865172  0.83806741  0.76667245     0.14800
C3337       C  0.36185636  0.84216404  0.01557974    -0.18100
C3338       C  0.36268723  0.84292104  0.99271871    -0.20300
C3339       C  0.34845170  0.85652546  0.98100977     0.20400
C3340       C  0.33347013  0.86973977  0.99255837    -0.03200
C3341       C  0.33258893  0.86893319  0.01561339    -0.06300
C3342       C  0.34676962  0.85499076  0.02717050     0.20600
C3343       C  0.31730880  0.88187732  0.02705353     0.18800
C3344       C  0.30333519  0.89576309  0.01542180    -0.17800
C3345       C  0.30423539  0.89659505  0.99263322    -0.20000
C3346       C  0.31907524  0.88350167  0.98107526     0.20300
C3347       C  0.31934408  0.88358543  0.95821526    -0.33000
C3348       C  0.33366625  0.86996296  0.94644464     0.01000
C3349       C  0.34853435  0.85678179  0.95799933    -0.24300
C3350       C  0.34549726  0.85401552  0.05007217    -0.28900
C3351       C  0.33014313  0.86673775  0.06160894     0.06700
C3352       C  0.31614142  0.88064334  0.04990081    -0.27600
H3353       H  0.37290988  0.83139594  0.02419439     0.11400
H3354       H  0.37432603  0.83268567  0.98418331     0.12500
H3355       H  0.29157618  0.90587224  0.02394642     0.11600
H3356       H  0.29311440  0.90729579  0.98402245     0.10800
H3357       H  0.30796134  0.89399261  0.94956756     0.16200
H3358       H  0.35966111  0.84625215  0.94913158     0.12100
H3359       H  0.35635107  0.84319250  0.05888574     0.15000
H3360       H  0.30431035  0.89056527  0.05856152     0.14800
C3361       C  0.26085812  0.75156695  0.89587046    -0.18100
C3362       C  0.24416742  0.73607427  0.89360999    -0.20300
C3363       C  0.22217014  0.74259770  0.89320281     0.20400
C3364       C  0.21686073  0.76477525  0.89636063    -0.03200
C3365       C  0.23368492  0.78038697  0.89881983    -0.06300
C3366       C  0.25578474  0.77379620  0.89785777     0.20600
C3367       C  0.22840601  0.80273758  0.90075688     0.18800
C3368       C  0.20639692  0.80914253  0.90117972    -0.17800
C3369       C  0.18973145  0.79366652  0.89874158    -0.20000
C3370       C  0.19480706  0.77153402  0.89586532     0.20300
C3371       C  0.17829328  0.75622741  0.89149022    -0.33000
C3372       C  0.18356098  0.73432316  0.88717212     0.01000
C3373       C  0.20548520  0.72751746  0.88867544    -0.24300
C3374       C  0.27231301  0.78967528  0.89719507    -0.28900
C3375       C  0.26695968  0.81193216  0.89760938     0.06700
C3376       C  0.24518047  0.81838939  0.90052588    -0.27600
H3377       H  0.27774678  0.74624759  0.89528432     0.11400
H3378       H  0.24849764  0.71908338  0.89141295     0.12500
H3379       H  0.20208528  0.82621690  0.90263795     0.11600
H3380       H  0.17287937  0.79910247  0.89845522     0.10800
H3381       H  0.16144557  0.76160176  0.89039216     0.16200
H3382       H  0.20965201  0.71060776  0.88561155     0.12100
H3383       H  0.28919352  0.78483206  0.89467439     0.15000
H3384       H  0.24114986  0.83561270  0.90038666     0.14800
C3385       C  0.20783456  0.88080892  0.81755124    -0.18100
C3386       C  0.19163854  0.88157188  0.80141314    -0.20300
C3387       C  0.19691390  0.87749814  0.77945950     0.20400
C3388       C  0.21886530  0.87330158  0.77364981    -0.03200
C3389       C  0.23520864  0.87253417  0.78993499    -0.06300
C3390       C  0.22960771  0.87597200  0.81203567     0.20600
C3391       C  0.25700910  0.86761175  0.78415594     0.18800
C3392       C  0.26243270  0.86423810  0.76214290    -0.17800
C3393       C  0.24626781  0.86499018  0.74603868    -0.20000
C3394       C  0.22439563  0.86911907  0.75166723     0.20300
C3395       C  0.20788240  0.86830486  0.73580993    -0.33000
C3396       C  0.18580206  0.87145052  0.74157826     0.01000
C3397       C  0.18054194  0.87671032  0.76336542    -0.24300
C3398       C  0.24571947  0.87381656  0.82825669    -0.28900
C3399       C  0.26732554  0.86801898  0.82267942     0.06700
C3400       C  0.27288179  0.86544428  0.80051259    -0.27600
H3401       H  0.20324007  0.88358564  0.83441835     0.11400
H3402       H  0.17489639  0.88490332  0.80617361     0.12500
H3403       H  0.27911965  0.86056316  0.75741985     0.11600
H3404       H  0.25080570  0.86186997  0.72921791     0.10800
H3405       H  0.21217331  0.86445608  0.71906490     0.16200
H3406       H  0.16361104  0.87920206  0.76801114     0.12100
H3407       H  0.24123454  0.87586896  0.84526439     0.15000
H3408       H  0.28947210  0.86113085  0.79597865     0.14800
C3409       C  0.34501814  0.71938402  0.90152528    -0.18100
C3410       C  0.34202825  0.74162293  0.90559030    -0.20300
C3411       C  0.35542245  0.75721643  0.89533494     0.20400
C3412       C  0.37277751  0.75037505  0.88179556    -0.03200
C3413       C  0.37566233  0.72791053  0.87751416    -0.06300
C3414       C  0.36136711  0.71239686  0.88703865     0.20600
C3415       C  0.39167897  0.72115275  0.86235253     0.18800
C3416       C  0.40572272  0.73670040  0.85291378    -0.17800
C3417       C  0.40299781  0.75894639  0.85731996    -0.20000
C3418       C  0.38607750  0.76602853  0.87111295     0.20300
C3419       C  0.38094653  0.78835559  0.87282866    -0.33000
C3420       C  0.36232791  0.79496005  0.88455055     0.01000
C3421       C  0.35051712  0.77946115  0.89681983    -0.24300
C3422       C  0.36252210  0.69045066  0.88057662    -0.28900
C3423       C  0.37713429  0.68408596  0.86408928     0.06700
C3424       C  0.39220626  0.69927167  0.85562914    -0.27600
H3425       H  0.33391350  0.70772389  0.90895397     0.11400
H3426       H  0.32862945  0.74666967  0.91603615     0.12500
H3427       H  0.41823646  0.73173610  0.84139406     0.11600
H3428       H  0.41344823  0.77067102  0.84909247     0.10800
H3429       H  0.38990803  0.80021759  0.86315133     0.16200
H3430       H  0.33613366  0.78455939  0.90587763     0.12100
H3431       H  0.35062968  0.67880344  0.88675011     0.15000
H3432       H  0.40332797  0.69432381  0.84273292     0.14800
C3433       C  0.33353014  0.87313962  0.73640698    -0.18100
C3434       C  0.33135183  0.87623559  0.75892030    -0.20300
C3435       C  0.34746287  0.86855038  0.77326243     0.20400
C3436       C  0.36633498  0.85829371  0.76481410    -0.03200
C3437       C  0.36867729  0.85543521  0.74203183    -0.06300
C3438       C  0.35193905  0.86247557  0.72785022     0.20600
C3439       C  0.38715731  0.84448179  0.73355849     0.18800
C3440       C  0.40331745  0.83692929  0.74794321    -0.17800
C3441       C  0.40084513  0.83949495  0.77054342    -0.20000
C3442       C  0.38227148  0.84983876  0.77917297     0.20300
C3443       C  0.37872827  0.85083419  0.80185704    -0.33000
C3444       C  0.35966646  0.86048915  0.81022229     0.01000
C3445       C  0.34443263  0.86983831  0.79592161    -0.24300
C3446       C  0.35328807  0.85760400  0.70553377    -0.28900
C3447       C  0.37121236  0.84600450  0.69713362     0.06700
C3448       C  0.38848123  0.84014561  0.71103191    -0.27600
H3449       H  0.32054477  0.87862438  0.72572011     0.11400
H3450       H  0.31674727  0.88406205  0.76516294     0.12500
H3451       H  0.41756245  0.82844306  0.74175402     0.11600
H3452       H  0.41324640  0.83293481  0.78131111     0.10800
H3453       H  0.39018695  0.84316880  0.81295016     0.16200
H3454       H  0.32948062  0.87677891  0.80244698     0.12100
H3455       H  0.33984356  0.86183159  0.69480536     0.15000
H3456       H  0.40203158  0.83071886  0.70461185     0.14800
C3457       C  0.34357256  0.19376983  0.48776571    -0.18100
C3458       C  0.34397753  0.19521533  0.51054692    -0.20300
C3459       C  0.35992476  0.18405945  0.52259056     0.20400
C3460       C  0.37540706  0.17098502  0.51156155    -0.03200
C3461       C  0.37504579  0.16958501  0.48847784    -0.06300
C3462       C  0.35914166  0.18119649  0.47658810     0.20600
C3463       C  0.39076061  0.15688897  0.47730285     0.18800
C3464       C  0.40659013  0.14557690  0.48943951    -0.17800
C3465       C  0.40685551  0.14684091  0.51232456    -0.20000
C3466       C  0.39136249  0.15952241  0.52356146     0.20300
C3467       C  0.39160435  0.16109866  0.54652493    -0.33000
C3468       C  0.37642700  0.17443131  0.55758330     0.01000
C3469       C  0.36069732  0.18588229  0.54544078    -0.24300
C3470       C  0.35934223  0.18049314  0.45370734    -0.28900
C3471       C  0.37516346  0.16830982  0.44230239     0.06700
C3472       C  0.39062488  0.15617084  0.45423834    -0.27600
H3473       H  0.33120083  0.20272134  0.47885097     0.11400
H3474       H  0.33189240  0.20520323  0.51874460     0.12500
H3475       H  0.41885191  0.13582079  0.48122480     0.11600
H3476       H  0.41928945  0.13798451  0.52123842     0.10800
H3477       H  0.40386089  0.15231517  0.55576934     0.16200
H3478       H  0.34886229  0.19602773  0.55383935     0.12100
H3479       H  0.34733659  0.18984187  0.44467107     0.15000
H3480       H  0.40302432  0.14694387  0.44560593     0.14800
C3481       C  0.14129099  0.48322201  0.61815644    -0.18100
C3482       C  0.14160651  0.50611608  0.61797432    -0.20300
C3483       C  0.16000329  0.51766808  0.62546515     0.20400
C3484       C  0.17812731  0.50594840  0.63352299    -0.03200
C3485       C  0.17780188  0.48283987  0.63371547    -0.06300
C3486       C  0.15935517  0.47137928  0.62584687     0.20600
C3487       C  0.19609498  0.47123337  0.64145995     0.18800
C3488       C  0.21440679  0.48271727  0.64920252    -0.17800
C3489       C  0.21472976  0.50553228  0.64901048    -0.20000
C3490       C  0.19675022  0.51728534  0.64106509     0.20300
C3491       C  0.19729674  0.54015337  0.64016847    -0.33000
C3492       C  0.17954242  0.55208076  0.63168760     0.01000
C3493       C  0.16078043  0.54066041  0.62465471    -0.24300
C3494       C  0.15947279  0.44834568  0.62545846    -0.28900
C3495       C  0.17787513  0.43662837  0.63277184     0.06700
C3496       C  0.19597541  0.44835101  0.64100316    -0.27600
H3497       H  0.12695652  0.47476562  0.61207679     0.11400
H3498       H  0.12751445  0.51479210  0.61175650     0.12500
H3499       H  0.22859129  0.47404015  0.65522581     0.11600
H3500       H  0.22915307  0.51398880  0.65488331     0.10800
H3501       H  0.21182554  0.54864899  0.64574514     0.16200
H3502       H  0.14700640  0.54959893  0.61809122     0.12100
H3503       H  0.14546277  0.43959343  0.61904140     0.15000
H3504       H  0.21027321  0.43966628  0.64676516     0.14800
C3505       C  0.21624207  0.37609185  0.49063978    -0.18100
C3506       C  0.21596666  0.37728962  0.51345857    -0.20300
C3507       C  0.19632685  0.37450505  0.52508257     0.20400
C3508       C  0.17673583  0.37061260  0.51357302    -0.03200
C3509       C  0.17697160  0.36966973  0.49044356    -0.06300
C3510       C  0.19685977  0.37225173  0.47898147     0.20600
C3511       C  0.15735938  0.36608467  0.47882334     0.18800
C3512       C  0.13773027  0.36333095  0.49050768    -0.17800
C3513       C  0.13754740  0.36396008  0.51341687    -0.20000
C3514       C  0.15695484  0.36756248  0.52515365     0.20300
C3515       C  0.15696613  0.36810299  0.54820625    -0.33000
C3516       C  0.17646261  0.37210268  0.55983308     0.01000
C3517       C  0.19602033  0.37541647  0.54800667    -0.24300
C3518       C  0.19707371  0.37094319  0.45607987    -0.28900
C3519       C  0.17761914  0.36747244  0.44423158     0.06700
C3520       C  0.15775583  0.36524035  0.45578903    -0.27600
H3521       H  0.23165385  0.37818207  0.48209687     0.11400
H3522       H  0.23116604  0.38027701  0.52203175     0.12500
H3523       H  0.12249782  0.36055431  0.48192240     0.11600
H3524       H  0.12217740  0.36163974  0.52196670     0.10800
H3525       H  0.14180187  0.36557628  0.55707342     0.16200
H3526       H  0.21118851  0.37831444  0.55668488     0.12100
H3527       H  0.21245002  0.37292977  0.44743162     0.15000
H3528       H  0.14268149  0.36254833  0.44689001     0.14800
C3529       C  0.31469648  0.29233810  0.60307651    -0.18100
C3530       C  0.29905119  0.30893248  0.60215986    -0.20300
C3531       C  0.27683740  0.30415339  0.60555335     0.20400
C3532       C  0.27023913  0.28228202  0.60902000    -0.03200
C3533       C  0.28600819  0.26558078  0.60999141    -0.06300
C3534       C  0.30836746  0.27072320  0.60743923     0.20600
C3535       C  0.27947631  0.24393493  0.61463224     0.18800
C3536       C  0.25721051  0.23901265  0.61730893    -0.17800
C3537       C  0.24158566  0.25556347  0.61642548    -0.20000
C3538       C  0.24801449  0.27725272  0.61281281     0.20300
C3539       C  0.23281556  0.29414742  0.61437443    -0.33000
C3540       C  0.23952336  0.31594349  0.61229596     0.01000
C3541       C  0.26129345  0.32092938  0.60697809    -0.24300
C3542       C  0.32405534  0.25436842  0.61035628    -0.28900
C3543       C  0.31770196  0.23302734  0.61619505     0.06700
C3544       C  0.29535758  0.22778532  0.61757726    -0.27600
H3545       H  0.33181716  0.29651617  0.60101160     0.11400
H3546       H  0.30439641  0.32558817  0.59945612     0.12500
H3547       H  0.25194278  0.22246785  0.62075764     0.11600
H3548       H  0.22453893  0.25149946  0.61925384     0.10800
H3549       H  0.21595722  0.29048137  0.61864811     0.16200
H3550       H  0.26640823  0.33784284  0.60576689     0.12100
H3551       H  0.34126095  0.25855405  0.60912638     0.15000
H3552       H  0.29032465  0.21135479  0.62187586     0.14800
C3553       C  0.38595689  0.50163739  0.86525689    -0.18100
C3554       C  0.38616852  0.47873999  0.86523478    -0.20300
C3555       C  0.37976288  0.46700981  0.84660145     0.20400
C3556       C  0.37302959  0.47857095  0.82783499    -0.03200
C3557       C  0.37277540  0.50163317  0.82786781    -0.06300
C3558       C  0.37930394  0.51326997  0.84664842     0.20600
C3559       C  0.36606830  0.51301751  0.80902496     0.18800
C3560       C  0.35973052  0.50140437  0.79035447    -0.17800
C3561       C  0.36000667  0.47863722  0.79031118    -0.20000
C3562       C  0.36660727  0.46711331  0.80895327     0.20300
C3563       C  0.36694781  0.44430911  0.80890836    -0.33000
C3564       C  0.37369754  0.43247570  0.82744285     0.01000
C3565       C  0.38005226  0.44399158  0.84631097    -0.24300
C3566       C  0.37919603  0.53627565  0.84637784    -0.28900
C3567       C  0.37258787  0.54771012  0.82753010     0.06700
C3568       C  0.36594045  0.53583160  0.80902817    -0.27600
H3569       H  0.39104014  0.51025083  0.87983383     0.11400
H3570       H  0.39140263  0.47020008  0.87980385     0.12500
H3571       H  0.35459245  0.50994138  0.77574314     0.11600
H3572       H  0.35506985  0.47003358  0.77567378     0.10800
H3573       H  0.36201364  0.43577574  0.79421913     0.16200
H3574       H  0.38531663  0.43509838  0.86066095     0.12100
H3575       H  0.38441134  0.54522728  0.86071159     0.15000
H3576       H  0.36086380  0.54434933  0.79437581     0.14800
C3577       C  0.25277794  0.36915868  0.76489324    -0.18100
C3578       C  0.23721940  0.36890225  0.74814876    -0.20300
C3579       C  0.24356607  0.37254155  0.72639873     0.20400
C3580       C  0.26564994  0.37729854  0.72156094    -0.03200
C3581       C  0.28130722  0.37764993  0.73844214    -0.06300
C3582       C  0.27493176  0.37310599  0.76015328     0.20600
C3583       C  0.30348656  0.38166897  0.73342602     0.18800
C3584       C  0.30975579  0.38590159  0.71179008    -0.17800
C3585       C  0.29427494  0.38546609  0.69506836    -0.20000
C3586       C  0.27226521  0.38089564  0.69974917     0.20300
C3587       C  0.25694641  0.37909040  0.68288735    -0.33000
C3588       C  0.23511125  0.37345454  0.68746308     0.01000
C3589       C  0.22841574  0.37073147  0.70932091    -0.24300
C3590       C  0.29095909  0.37156025  0.77649561    -0.28900
C3591       C  0.31325487  0.37436974  0.77129131     0.06700
C3592       C  0.31921114  0.38031718  0.74990575    -0.27600
H3593       H  0.24756592  0.36576050  0.78146844     0.11400
H3594       H  0.22028835  0.36534984  0.75215143     0.12500
H3595       H  0.32674845  0.38901059  0.70771454     0.11600
H3596       H  0.29959263  0.38827808  0.67841788     0.10800
H3597       H  0.26226514  0.38117745  0.66612111     0.16200
H3598       H  0.21155839  0.36650140  0.71301211     0.12100
H3599       H  0.28618027  0.36713023  0.79297065     0.15000
H3600       H  0.33630396  0.38268295  0.74572804     0.14800
C3601       C  0.40461424  0.30363709  0.71139585    -0.18100
C3602       C  0.40545092  0.28811352  0.69467056    -0.20300
C3603       C  0.39655649  0.26720887  0.69778098     0.20400
C3604       C  0.38738578  0.26165703  0.71827031    -0.03200
C3605       C  0.38642786  0.27735069  0.73509836    -0.06300
C3606       C  0.39479429  0.29855750  0.73150062     0.20600
C3607       C  0.37614944  0.27214260  0.75511841     0.18800
C3608       C  0.36801677  0.25098911  0.75859974    -0.17800
C3609       C  0.36901537  0.23542189  0.74194784    -0.20000
C3610       C  0.37813620  0.24080501  0.72157488     0.20300
C3611       C  0.37703865  0.22616152  0.70407743    -0.33000
C3612       C  0.38499485  0.23205680  0.68331295     0.01000
C3613       C  0.39554239  0.25220990  0.68043854    -0.24300
C3614       C  0.39226736  0.31457918  0.74766466    -0.28900
C3615       C  0.38084649  0.30978740  0.76697399     0.06700
C3616       C  0.37329767  0.28846091  0.77087134    -0.27600
H3617       H  0.41111879  0.31982830  0.70838824     0.11400
H3618       H  0.41255501  0.29265416  0.67908809     0.12500
H3619       H  0.36031496  0.24667609  0.77397322     0.11600
H3620       H  0.36202685  0.21939680  0.74476655     0.10800
H3621       H  0.36894181  0.21053572  0.70627354     0.16200
H3622       H  0.40145759  0.25681375  0.66437616     0.12100
H3623       H  0.39796681  0.33108849  0.74468679     0.15000
H3624       H  0.36465096  0.28477923  0.78592715     0.14800
C3625       C  0.13830429  0.34903242  0.01628986    -0.18100
C3626       C  0.13815346  0.35035332  0.99336470    -0.20300
C3627       C  0.12972354  0.33315742  0.98068793     0.20400
C3628       C  0.12116122  0.31457352  0.99138742    -0.03200
C3629       C  0.12132102  0.31323625  0.01448408    -0.06300
C3630       C  0.13002568  0.33048171  0.02706918     0.20600
C3631       C  0.11286936  0.29451024  0.02494025     0.18800
C3632       C  0.10428807  0.27737509  0.01241863    -0.17800
C3633       C  0.10413417  0.27869031  0.98967061    -0.20000
C3634       C  0.11257049  0.29716422  0.97902549     0.20300
C3635       C  0.11272145  0.29829168  0.95620143    -0.33000
C3636       C  0.12149447  0.31650685  0.94513880     0.01000
C3637       C  0.12987804  0.33402879  0.95758521    -0.24300
C3638       C  0.13032012  0.32876166  0.05011286    -0.28900
C3639       C  0.12185964  0.31001207  0.06062621     0.06700
C3640       C  0.11316190  0.29307495  0.04774088    -0.27600
H3641       H  0.14499929  0.36250566  0.02558958     0.11400
H3642       H  0.14475687  0.36480866  0.98554161     0.12500
H3643       H  0.09773969  0.26288379  0.02023031     0.11600
H3644       H  0.09749101  0.26517930  0.98038210     0.10800
H3645       H  0.10620604  0.28463638  0.94702238     0.16200
H3646       H  0.13667247  0.34817229  0.94935307     0.12100
H3647       H  0.13702829  0.34196324  0.05979584     0.15000
H3648       H  0.10667006  0.27850300  0.05546281     0.14800
C3649       C  0.25596306  0.39345449  0.85596805    -0.18100
C3650       C  0.23342005  0.39028102  0.85903099    -0.20300
C3651       C  0.22564532  0.37329493  0.87238965     0.20400
C3652       C  0.24083631  0.36028700  0.88387863    -0.03200
C3653       C  0.26358802  0.36343778  0.88073384    -0.06300
C3654       C  0.27117822  0.37968056  0.86618421     0.20600
C3655       C  0.27863113  0.34913517  0.89073840     0.18800
C3656       C  0.27095230  0.33287647  0.90498142    -0.17800
C3657       C  0.24849172  0.32982938  0.90816250    -0.20000
C3658       C  0.23333912  0.34293554  0.89709307     0.20300
C3659       C  0.21100091  0.33773035  0.89746967    -0.33000
C3660       C  0.19602130  0.34927864  0.88448166     0.01000
C3661       C  0.20319401  0.36785606  0.87297766    -0.24300
C3662       C  0.29359868  0.38064310  0.86076178    -0.28900
C3663       C  0.30828705  0.36520976  0.86930898     0.06700
C3664       C  0.30084934  0.35012442  0.88493591    -0.27600
H3665       H  0.26146284  0.40607432  0.84483242     0.11400
H3666       H  0.22205575  0.40052234  0.85016879     0.12500
H3667       H  0.28228360  0.32187268  0.91290319     0.11600
H3668       H  0.24296409  0.31651069  0.91845920     0.10800
H3669       H  0.20550512  0.32336865  0.90631176     0.16200
H3670       H  0.19175507  0.37663356  0.86272565     0.12100
H3671       H  0.29921837  0.39195640  0.84832641     0.15000
H3672       H  0.31209377  0.33800885  0.89123904     0.14800
C3673       C  0.15803983  0.39028117  0.74660077    -0.18100
C3674       C  0.15608399  0.38757441  0.76925612    -0.20300
C3675       C  0.14390249  0.37014926  0.77798119     0.20400
C3676       C  0.13324022  0.35553152  0.76367436    -0.03200
C3677       C  0.13549534  0.35807249  0.74079368    -0.06300
C3678       C  0.14803325  0.37549758  0.73220060     0.20600
C3679       C  0.12606532  0.34258145  0.72657165     0.18800
C3680       C  0.11391640  0.32512992  0.73526095    -0.17800
C3681       C  0.11141350  0.32279913  0.75786405    -0.20000
C3682       C  0.12117074  0.33776963  0.77221515     0.20300
C3683       C  0.11998928  0.33466066  0.79492257    -0.33000
C3684       C  0.13125358  0.34864052  0.80920085     0.01000
C3685       C  0.14304772  0.36645250  0.80067369    -0.24300
C3686       C  0.15129080  0.37712788  0.70946231    -0.28900
C3687       C  0.14274789  0.36116110  0.69534222     0.06700
C3688       C  0.12989031  0.34415585  0.70400210    -0.27600
H3689       H  0.16784718  0.40365889  0.74034150     0.11400
H3690       H  0.16441409  0.39892576  0.77996737     0.12500
H3691       H  0.10665869  0.31304448  0.72457423     0.11600
H3692       H  0.10227877  0.30896119  0.76414010     0.10800
H3693       H  0.11155284  0.32048263  0.80145302     0.16200
H3694       H  0.15227493  0.37684106  0.81164998     0.12100
H3695       H  0.16184593  0.38980692  0.70291799     0.15000
H3696       H  0.12374319  0.33154839  0.69319546     0.14800
C3697       C  0.28185124  0.10780979  0.01235559    -0.18100
C3698       C  0.28129905  0.10942441  0.98961735    -0.20300
C3699       C  0.30076049  0.11156880  0.97760845     0.20400
C3700       C  0.32100566  0.11226692  0.98855456    -0.03200
C3701       C  0.32154188  0.11096988  0.01161146    -0.06300
C3702       C  0.30186105  0.10854310  0.02349605     0.20600
C3703       C  0.34170154  0.11209976  0.02274705     0.18800
C3704       C  0.36115573  0.11424137  0.01063376    -0.17800
C3705       C  0.36064606  0.11515712  0.98773552    -0.20000
C3706       C  0.34065440  0.11418272  0.97648441     0.20300
C3707       C  0.33989105  0.11501143  0.95345068    -0.33000
C3708       C  0.31964708  0.11441466  0.94248264     0.01000
C3709       C  0.30022931  0.11285874  0.95481851    -0.24300
C3710       C  0.30245340  0.10699807  0.04632361    -0.28900
C3711       C  0.32238655  0.10840632  0.05765536     0.06700
C3712       C  0.34198584  0.11109209  0.04574798    -0.27600
H3713       H  0.26659968  0.10604637  0.02124176     0.11400
H3714       H  0.26562359  0.10886005  0.98140032     0.12500
H3715       H  0.37679976  0.11511019  0.01887059     0.11600
H3716       H  0.37590931  0.11668138  0.97882635     0.10800
H3717       H  0.35493409  0.11627323  0.94412559     0.16200
H3718       H  0.28453354  0.11218640  0.94662701     0.12100
H3719       H  0.28727326  0.10518509  0.05534945     0.15000
H3720       H  0.35742490  0.11214052  0.05435865     0.14800
C3721       C  0.28622742  0.99932800  0.88844725    -0.18100
C3722       C  0.28722780  0.97657554  0.88862920    -0.20300
C3723       C  0.30646829  0.96583849  0.88234217     0.20400
C3724       C  0.32493550  0.97806741  0.87583150    -0.03200
C3725       C  0.32384168  0.00111344  0.87543546    -0.06300
C3726       C  0.30441113  0.01172151  0.88187631     0.20600
C3727       C  0.34213367  0.01350925  0.86866383     0.18800
C3728       C  0.36138762  0.00264875  0.86241796    -0.17800
C3729       C  0.36255326  0.97977930  0.86303680    -0.20000
C3730       C  0.34443162  0.96728550  0.86974066     0.20300
C3731       C  0.34531878  0.94426742  0.87035406    -0.33000
C3732       C  0.32670568  0.93207590  0.87639966     0.01000
C3733       C  0.30744258  0.94305657  0.88240133    -0.24300
C3734       C  0.30345075  0.03454566  0.88177493    -0.28900
C3735       C  0.32157764  0.04718037  0.87521087     0.06700
C3736       C  0.34085242  0.03649065  0.86843726    -0.27600
H3737       H  0.27119060  0.00724357  0.89343670     0.11400
H3738       H  0.27294251  0.96736726  0.89371320     0.12500
H3739       H  0.37560880  0.01185434  0.85715495     0.11600
H3740       H  0.37763531  0.97186075  0.85821104     0.10800
H3741       H  0.36019780  0.93587412  0.86568223     0.16200
H3742       H  0.29313845  0.93377931  0.88736961     0.12100
H3743       H  0.28844388  0.04248875  0.88683517     0.15000
H3744       H  0.35491921  0.04601938  0.86331589     0.14800
C3745       C  0.24140700  0.25035130  0.88260942    -0.18100
C3746       C  0.25737234  0.23410646  0.88148390    -0.20300
C3747       C  0.25214546  0.21244014  0.88681595     0.20400
C3748       C  0.23102815  0.20732049  0.89471372    -0.03200
C3749       C  0.21491794  0.22376359  0.89598901    -0.06300
C3750       C  0.22000077  0.24517603  0.88917853     0.20600
C3751       C  0.19337974  0.21846570  0.90265131     0.18800
C3752       C  0.18857876  0.19702734  0.90921946    -0.17800
C3753       C  0.20455381  0.18071702  0.90792782    -0.20000
C3754       C  0.22561512  0.18556168  0.90004116     0.20300
C3755       C  0.24090123  0.16889057  0.89616267    -0.33000
C3756       C  0.26142138  0.17370937  0.88676668     0.01000
C3757       C  0.26724327  0.19566024  0.88313261    -0.24300
C3758       C  0.20327864  0.26063967  0.88755280    -0.28900
C3759       C  0.18151498  0.25501699  0.89250849     0.06700
C3760       C  0.17677323  0.23428787  0.90112524    -0.27600
H3761       H  0.24558285  0.26678327  0.87754347     0.11400
H3762       H  0.27358109  0.23833791  0.87559664     0.12500
H3763       H  0.17221917  0.19267488  0.91455066     0.11600
H3764       H  0.20018363  0.16414467  0.91231994     0.10800
H3765       H  0.23636050  0.15208322  0.89935446     0.16200
H3766       H  0.28313417  0.19964411  0.87626546     0.12100
H3767       H  0.20691520  0.27670584  0.88102325     0.15000
H3768       H  0.15995964  0.22991989  0.90480288     0.14800
C3769       C  0.39133621  0.24195651  0.83132188    -0.18100
C3770       C  0.38694351  0.21965444  0.83316079    -0.20300
C3771       C  0.37524554  0.21155365  0.85116457     0.20400
C3772       C  0.36862630  0.22593750  0.86792569    -0.03200
C3773       C  0.37277044  0.24857197  0.86589016    -0.06300
C3774       C  0.38389331  0.25654291  0.84733060     0.20600
C3775       C  0.36453732  0.26332061  0.88163545     0.18800
C3776       C  0.35336136  0.25504084  0.89993224    -0.17800
C3777       C  0.34958804  0.23254902  0.90215680    -0.20000
C3778       C  0.35668508  0.21789857  0.88600063     0.20300
C3779       C  0.35088927  0.19563138  0.88685453    -0.33000
C3780       C  0.35627432  0.18163024  0.86948041     0.01000
C3781       C  0.36890471  0.18957371  0.85200699    -0.24300
C3782       C  0.38586864  0.27904814  0.84416532    -0.28900
C3783       C  0.37595701  0.29389393  0.85862037     0.06700
C3784       C  0.36618806  0.28602697  0.87791078    -0.27600
H3785       H  0.39979913  0.24790506  0.81691366     0.11400
H3786       H  0.39214555  0.20882583  0.82018594     0.12500
H3787       H  0.34695212  0.26602468  0.91222297     0.11600
H3788       H  0.34040457  0.22669872  0.91613936     0.10800
H3789       H  0.34071145  0.18961002  0.90007908     0.16200
H3790       H  0.37280897  0.17882248  0.83849217     0.12100
H3791       H  0.39326236  0.28506881  0.82918399     0.15000
H3792       H  0.35815810  0.29735026  0.88888536     0.14800
C3793       C  0.39678690  0.14664793  0.74845660    -0.18100
C3794       C  0.39237501  0.14169873  0.77034064    -0.20300
C3795       C  0.37465939  0.12816607  0.77591910     0.20400
C3796       C  0.36206157  0.11847342  0.75917839    -0.03200
C3797       C  0.36676602  0.12315789  0.73705778    -0.06300
C3798       C  0.38371314  0.13794756  0.73176372     0.20600
C3799       C  0.35349311  0.11432708  0.72036376     0.18800
C3800       C  0.33621541  0.10022624  0.72589875    -0.17800
C3801       C  0.33132456  0.09589561  0.74781383    -0.20000
C3802       C  0.34380156  0.10538246  0.76455052     0.20300
C3803       C  0.33742100  0.10330262  0.78647424    -0.33000
C3804       C  0.34912694  0.11399492  0.80311756     0.01000
C3805       C  0.36834266  0.12549114  0.79785384    -0.24300
C3806       C  0.38620965  0.14502044  0.71010395    -0.28900
C3807       C  0.37223846  0.13721623  0.69367195     0.06700
C3808       C  0.35665383  0.12108243  0.69865455    -0.27600
H3809       H  0.40995317  0.15790466  0.74463782     0.11400
H3810       H  0.40224366  0.14922885  0.78295005     0.12500
H3811       H  0.32587668  0.09330252  0.71330999     0.11600
H3812       H  0.31730840  0.08573142  0.75168407     0.10800
H3813       H  0.32252203  0.09450992  0.79050647     0.16200
H3814       H  0.37716304  0.13405742  0.81059714     0.12100
H3815       H  0.39806316  0.15765288  0.70622611     0.15000
H3816       H  0.34559304  0.11542705  0.68602210     0.14800
C3817       C  0.11688889  0.00591060  0.71467431    -0.18100
C3818       C  0.11810989  0.98321313  0.71579954    -0.20300
C3819       C  0.12546233  0.97116315  0.69779487     0.20400
C3820       C  0.13192411  0.98204761  0.67850998    -0.03200
C3821       C  0.13094192  0.00507395  0.67747089    -0.06300
C3822       C  0.12313980  0.01694312  0.69558290     0.20600
C3823       C  0.13748882  0.01617635  0.65831674     0.18800
C3824       C  0.14515524  0.00400367  0.64042108    -0.17800
C3825       C  0.14581332  0.98110818  0.64133118    -0.20000
C3826       C  0.13904512  0.96992888  0.66023398     0.20300
C3827       C  0.13900558  0.94691774  0.66121385    -0.33000
C3828       C  0.13255691  0.93609596  0.68049855     0.01000
C3829       C  0.12613187  0.94838529  0.69873435    -0.24300
C3830       C  0.12147467  0.03965056  0.69433832    -0.28900
C3831       C  0.12760773  0.05101838  0.67530963     0.06700
C3832       C  0.13597136  0.03916376  0.65739507    -0.27600
H3833       H  0.11093150  0.01484794  0.72873544     0.11400
H3834       H  0.11307858  0.97506102  0.73069208     0.12500
H3835       H  0.15036753  0.01217267  0.62560445     0.11600
H3836       H  0.15150921  0.97213711  0.62718521     0.10800
H3837       H  0.14408861  0.93746741  0.64713900     0.16200
H3838       H  0.12095496  0.94012426  0.71353852     0.12100
H3839       H  0.11538562  0.04852036  0.70839623     0.15000
H3840       H  0.14093849  0.04773386  0.64271461     0.14800
C3841       C  0.16893285  0.24464311  0.60252453    -0.18100
C3842       C  0.16602994  0.22232657  0.60622648    -0.20300
C3843       C  0.14873528  0.21483689  0.61934819     0.20400
C3844       C  0.13364499  0.22991570  0.62811080    -0.03200
C3845       C  0.13671799  0.25254753  0.62454427    -0.06300
C3846       C  0.15467502  0.25986073  0.61200192     0.20600
C3847       C  0.12271713  0.26785912  0.63466589     0.18800
C3848       C  0.10508377  0.26023241  0.64733960    -0.17800
C3849       C  0.10188989  0.23778223  0.65068611    -0.20000
C3850       C  0.11636179  0.22249053  0.64156773     0.20300
C3851       C  0.11479099  0.20012051  0.64680819    -0.33000
C3852       C  0.13066697  0.18534980  0.63921790     0.01000
C3853       C  0.14716358  0.19271995  0.62502092    -0.24300
C3854       C  0.15908256  0.28223302  0.61046827    -0.28900
C3855       C  0.14635023  0.29756138  0.62190021     0.06700
C3856       C  0.12756487  0.29038265  0.63320018    -0.27600
H3857       H  0.18284454  0.25004844  0.59291880     0.11400
H3858       H  0.17773232  0.21096038  0.59937754     0.12500
H3859       H  0.09412945  0.27166200  0.65523072     0.11600
H3860       H  0.08853262  0.23242134  0.66105569     0.10800
H3861       H  0.10238490  0.19452930  0.65820747     0.16200
H3862       H  0.15959854  0.18138294  0.61948233     0.12100
H3863       H  0.17366247  0.28765700  0.60187225     0.15000
H3864       H  0.11793678  0.30203056  0.64241045     0.14800
C3865       C  0.25146392  0.09712899  0.66461154    -0.18100
C3866       C  0.27370772  0.10066668  0.66067942    -0.20300
C3867       C  0.28048776  0.11395684  0.64327118     0.20400
C3868       C  0.26476885  0.12310151  0.62912771    -0.03200
C3869       C  0.24224295  0.11952734  0.63312015    -0.06300
C3870       C  0.23564932  0.10682595  0.65120427     0.20600
C3871       C  0.22635553  0.12979327  0.61991824     0.18800
C3872       C  0.23324824  0.14284392  0.60232283    -0.17800
C3873       C  0.25559096  0.14642590  0.59838712    -0.20000
C3874       C  0.27148963  0.13700470  0.61194901     0.20300
C3875       C  0.29379667  0.14249519  0.60971905    -0.33000
C3876       C  0.30921468  0.13448140  0.62469406     0.01000
C3877       C  0.30257065  0.11958334  0.64082576    -0.24300
C3878       C  0.21342748  0.10527757  0.65651822    -0.28900
C3879       C  0.19758956  0.11655996  0.64434504     0.06700
C3880       C  0.20400690  0.12804770  0.62548959    -0.27600
H3881       H  0.24661372  0.08740443  0.67860805     0.11400
H3882       H  0.28558910  0.09361745  0.67171084     0.12500
H3883       H  0.22134065  0.15088255  0.59202505     0.11600
H3884       H  0.26041263  0.15716084  0.58515185     0.10800
H3885       H  0.29882524  0.15452608  0.59771191     0.16200
H3886       H  0.31440963  0.11385880  0.65268115     0.12100
H3887       H  0.20853333  0.09656657  0.67117993     0.15000
H3888       H  0.19190699  0.13714794  0.61634325     0.14800
C3889       C  0.10525310  0.19915733  0.81091994    -0.18100
C3890       C  0.10490289  0.18308357  0.79467921    -0.20300
C3891       C  0.11134988  0.18808434  0.77322911     0.20400
C3892       C  0.11741988  0.20970850  0.76795214    -0.03200
C3893       C  0.11784827  0.22590858  0.78435571    -0.06300
C3894       C  0.11212249  0.22049442  0.80601834     0.20600
C3895       C  0.12479991  0.24730038  0.77922293     0.18800
C3896       C  0.13041474  0.25252625  0.75761475    -0.17800
C3897       C  0.12995487  0.23650491  0.74137339    -0.20000
C3898       C  0.12387337  0.21499098  0.74646742     0.20300
C3899       C  0.12499082  0.19853481  0.73063229    -0.33000
C3900       C  0.12011956  0.17669637  0.73598102     0.01000
C3901       C  0.11267623  0.17171238  0.75719591    -0.24300
C3902       C  0.11422254  0.23624700  0.82253330    -0.28900
C3903       C  0.12227765  0.25728647  0.81774651     0.06700
C3904       C  0.12685701  0.26285623  0.79590245    -0.27600
H3905       H  0.10066828  0.19475369  0.82745028     0.11400
H3906       H  0.10006104  0.16662358  0.79901202     0.12500
H3907       H  0.13564401  0.26890321  0.75336506     0.11600
H3908       H  0.13485307  0.24083310  0.72491592     0.10800
H3909       H  0.13058616  0.20264325  0.71432802     0.16200
H3910       H  0.10879694  0.15498626  0.76149401     0.12100
H3911       H  0.11045825  0.23180381  0.83926175     0.15000
H3912       H  0.13282915  0.27906611  0.79195574     0.14800
C3913       C  0.25470709  0.11257670  0.76121650    -0.18100
C3914       C  0.23917890  0.11290818  0.74455177    -0.20300
C3915       C  0.21773195  0.10575567  0.74856897     0.20400
C3916       C  0.21218693  0.09678692  0.76908892    -0.03200
C3917       C  0.22787338  0.09649715  0.78595729    -0.06300
C3918       C  0.24896371  0.10512297  0.78211234     0.20600
C3919       C  0.22203345  0.08897446  0.80700976     0.18800
C3920       C  0.20091188  0.08057819  0.81054542    -0.17800
C3921       C  0.18533860  0.08082212  0.79377029    -0.20000
C3922       C  0.19060716  0.08949953  0.77318197     0.20300
C3923       C  0.17442950  0.09240495  0.75711941    -0.33000
C3924       C  0.17963716  0.10306784  0.73745837     0.01000
C3925       C  0.20141900  0.10880497  0.73292652    -0.24300
C3926       C  0.26346257  0.10754764  0.79953301    -0.28900
C3927       C  0.25722025  0.10160590  0.82077856     0.06700
C3928       C  0.23693926  0.09134785  0.82436748    -0.27600
H3929       H  0.27094034  0.11899394  0.75801048     0.11400
H3930       H  0.24370339  0.11958338  0.72877784     0.12500
H3931       H  0.19617632  0.07457511  0.82651725     0.11600
H3932       H  0.16892370  0.07500292  0.79716301     0.10800
H3933       H  0.15757882  0.08800726  0.76056936     0.16200
H3934       H  0.20541076  0.11679317  0.71760272     0.12100
H3935       H  0.27924388  0.11524821  0.79681436     0.15000
H3936       H  0.23216752  0.08680381  0.84081412     0.14800
C3937       C  0.48840284  0.21284147  0.63119311    -0.18100
C3938       C  0.51125084  0.21312903  0.63143924    -0.20300
C3939       C  0.52305940  0.19355743  0.63039652     0.20400
C3940       C  0.51179426  0.17348526  0.62909917    -0.03200
C3941       C  0.48870140  0.17317716  0.62908628    -0.06300
C3942       C  0.47701918  0.19297221  0.63001842     0.20600
C3943       C  0.47732429  0.15310950  0.62800151     0.18800
C3944       C  0.48920480  0.13358335  0.62669511    -0.17800
C3945       C  0.51212346  0.13390741  0.62647336    -0.20000
C3946       C  0.52358332  0.15375356  0.62773251     0.20300
C3947       C  0.54658819  0.15423975  0.62763656    -0.33000
C3948       C  0.55790610  0.17420601  0.62917821     0.01000
C3949       C  0.54594634  0.19376405  0.63056342    -0.24300
C3950       C  0.45414992  0.19259873  0.62949026    -0.28900
C3951       C  0.44267046  0.17272121  0.62828736     0.06700
C3952       C  0.45430916  0.15298517  0.62791004    -0.27600
H3953       H  0.47963060  0.22816719  0.63190278     0.11400
H3954       H  0.51969141  0.22867095  0.63237480     0.12500
H3955       H  0.48076466  0.11804481  0.62573154     0.11600
H3956       H  0.52089369  0.11860935  0.62537231     0.10800
H3957       H  0.55565321  0.13910858  0.62647893     0.16200
H3958       H  0.55445315  0.20928094  0.63149960     0.12100
H3959       H  0.44521426  0.20785877  0.62995239     0.15000
H3960       H  0.44549159  0.13765359  0.62681381     0.14800
C3961       C  0.60778538  0.20377288  0.49010861    -0.18100
C3962       C  0.60715186  0.20389307  0.51286363    -0.15500
C3963       C  0.61550032  0.18623910  0.52474555     0.20400
C3964       C  0.62466639  0.16827974  0.51365508    -0.03200
C3965       C  0.62529582  0.16815033  0.49058094    -0.06300
C3966       C  0.61674745  0.18597957  0.47886958     0.20600
C3967       C  0.63443329  0.15027200  0.47925945     0.18800
C3968       C  0.64291412  0.13269135  0.49128739    -0.17800
C3969       C  0.64229818  0.13282192  0.51421684    -0.20000
C3970       C  0.63319970  0.15054453  0.52559558     0.20300
C3971       C  0.63255657  0.15097747  0.54863335    -0.33000
C3972       C  0.62343430  0.16895957  0.55976279     0.01000
C3973       C  0.61489423  0.18640709  0.54754902    -0.24300
C3974       C  0.61719543  0.18581502  0.45608550    -0.28900
C3975       C  0.62606127  0.16809815  0.44445344     0.06700
C3976       C  0.63483084  0.15035626  0.45619000    -0.27600
H3977       H  0.60120923  0.21760035  0.48128599     0.11400
H3978       H  0.60012009  0.21782140  0.52118050     0.12500
H3979       H  0.65001538  0.11880874  0.48295997     0.11600
H3980       H  0.64895744  0.11904920  0.52305289     0.10800
H3981       H  0.63923570  0.13745031  0.55783935     0.16200
H3982       H  0.60788659  0.20039660  0.55579655     0.12100
H3983       H  0.61057323  0.19971123  0.44739231     0.15000
H3984       H  0.64181283  0.13666612  0.44744178     0.14800
C3985       C  0.86423737  0.50434813  0.62511561    -0.18100
C3986       C  0.86393196  0.48145641  0.62522188    -0.20300
C3987       C  0.84400168  0.46999117  0.62584032     0.20400
C3988       C  0.82419781  0.48182428  0.62638260    -0.03200
C3989       C  0.82449464  0.50490874  0.62593737    -0.06300
C3990       C  0.84462040  0.51624788  0.62537853     0.20600
C3991       C  0.80462777  0.51661439  0.62593948     0.18800
C3992       C  0.78469986  0.50523558  0.62686363    -0.17800
C3993       C  0.78441535  0.48243999  0.62758655    -0.20000
C3994       C  0.80404812  0.47061496  0.62724754     0.20300
C3995       C  0.80379582  0.44776631  0.62764741    -0.33000
C3996       C  0.82338151  0.43568674  0.62688505     0.01000
C3997       C  0.84348318  0.44696485  0.62588748    -0.24300
C3998       C  0.84472293  0.53923493  0.62491562    -0.28900
C3999       C  0.82493508  0.55095905  0.62435237     0.06700
C4000       C  0.80498795  0.53948146  0.62490857    -0.27600
H4001       H  0.87985408  0.51275555  0.62466101     0.11400
H4002       H  0.87930590  0.47271730  0.62484734     0.12500
H4003       H  0.76931283  0.51397113  0.62698776     0.11600
H4004       H  0.76880327  0.47404178  0.62826780     0.10800
H4005       H  0.78817312  0.43936210  0.62821073     0.16200
H4006       H  0.85865088  0.43787096  0.62530468     0.12100
H4007       H  0.86015927  0.54798783  0.62451383     0.15000
H4008       H  0.78969515  0.54840663  0.62481775     0.14800
C4009       C  0.79673928  0.39557627  0.51053685    -0.18100
C4010       C  0.79719545  0.39536129  0.48770953    -0.20300
C4011       C  0.81356442  0.38389559  0.47647237     0.20400
C4012       C  0.82997013  0.37297726  0.48833956    -0.03200
C4013       C  0.82951421  0.37320669  0.51147829    -0.06300
C4014       C  0.81264133  0.38432837  0.52257033     0.20600
C4015       C  0.84564626  0.36198168  0.52347536     0.18800
C4016       C  0.86240827  0.35109294  0.51215187    -0.17800
C4017       C  0.86284520  0.35084568  0.48922707    -0.20000
C4018       C  0.84654525  0.36150282  0.47711692     0.20300
C4019       C  0.84627487  0.36060152  0.45406762    -0.33000
C4020       C  0.82957607  0.37102593  0.44211107     0.01000
C4021       C  0.81351021  0.38288876  0.45359008    -0.24300
C4022       C  0.81165301  0.38370815  0.54547405    -0.28900
C4023       C  0.82725194  0.37205425  0.55770753     0.06700
C4024       C  0.84446640  0.36151734  0.54650445    -0.27600
H4025       H  0.78374183  0.40431099  0.51878874     0.11400
H4026       H  0.78454165  0.40393817  0.47883183     0.12500
H4027       H  0.87504016  0.34249040  0.52103308     0.11600
H4028       H  0.87580343  0.34206221  0.48096545     0.10800
H4029       H  0.85883256  0.35152725  0.44549770     0.16200
H4030       H  0.80063942  0.39116196  0.44472364     0.12100
H4031       H  0.79845199  0.39210951  0.55376398     0.15000
H4032       H  0.85671188  0.35262844  0.55565143     0.14800
C4033       C  0.68907385  0.28951530  0.59128866    -0.18100
C4034       C  0.70529574  0.30574880  0.59140282    -0.20300
C4035       C  0.72617676  0.30138845  0.59986365     0.20400
C4036       C  0.73099992  0.28015137  0.60743387    -0.03200
C4037       C  0.71468844  0.26381117  0.60729053    -0.06300
C4038       C  0.69344298  0.26861891  0.59962008     0.20600
C4039       C  0.71932503  0.24302078  0.61601352     0.18800
C4040       C  0.74033495  0.23836323  0.62384312    -0.17800
C4041       C  0.75645289  0.25451191  0.62399625    -0.20000
C4042       C  0.75176655  0.27553163  0.61631224     0.20300
C4043       C  0.76708813  0.29229814  0.61857624    -0.33000
C4044       C  0.76199016  0.31369892  0.61229532     0.01000
C4045       C  0.74189943  0.31808944  0.60210464    -0.24300
C4046       C  0.67671237  0.25288028  0.60171029    -0.28900
C4047       C  0.68109735  0.23277123  0.61181847     0.06700
C4048       C  0.70254804  0.22766335  0.61806020    -0.27600
H4049       H  0.67290869  0.29350884  0.58529274     0.11400
H4050       H  0.70129593  0.32191269  0.58548116     0.12500
H4051       H  0.74409462  0.22242556  0.63052006     0.11600
H4052       H  0.77236925  0.25075986  0.63076719     0.10800
H4053       H  0.78267357  0.28896056  0.62632848     0.16200
H4054       H  0.73794546  0.33467893  0.59743096     0.12100
H4055       H  0.66008470  0.25685952  0.59708079     0.15000
H4056       H  0.70587706  0.21207430  0.62577682     0.14800
C4057       C  0.60873459  0.49911171  0.78883176    -0.18100
C4058       C  0.60948217  0.47636512  0.78978568    -0.20300
C4059       C  0.61545477  0.46576760  0.80916416     0.20400
C4060       C  0.62032171  0.47812864  0.82794473    -0.03200
C4061       C  0.61982004  0.50121421  0.82689643    -0.06300
C4062       C  0.61411559  0.51167793  0.80718806     0.20600
C4063       C  0.62537059  0.51379003  0.84537128     0.18800
C4064       C  0.63074869  0.50304573  0.86493612    -0.17800
C4065       C  0.63099943  0.48013110  0.86605023    -0.20000
C4066       C  0.62603095  0.46744764  0.84758058     0.20300
C4067       C  0.62703615  0.44437520  0.84816620    -0.33000
C4068       C  0.62297865  0.43209378  0.82912326     0.01000
C4069       C  0.61696661  0.44301397  0.80986417    -0.24300
C4070       C  0.61424267  0.53452022  0.80595100    -0.28900
C4071       C  0.62036737  0.54735262  0.82399805     0.06700
C4072       C  0.62573559  0.53680304  0.84379514    -0.27600
H4073       H  0.60425281  0.50689439  0.77359967     0.11400
H4074       H  0.60557795  0.46704911  0.77527257     0.12500
H4075       H  0.63494424  0.51237135  0.87935778     0.11600
H4076       H  0.63538165  0.47233501  0.88129940     0.10800
H4077       H  0.63163756  0.43608094  0.86309125     0.16200
H4078       H  0.61344450  0.43368885  0.79523780     0.12100
H4079       H  0.61003482  0.54230803  0.79063427     0.15000
H4080       H  0.63028214  0.54645511  0.85789871     0.14800
C4081       C  0.51239493  0.37813691  0.79159416    -0.18100
C4082       C  0.48947991  0.37846959  0.79140082    -0.20300
C4083       C  0.47745383  0.37092243  0.80947115     0.20400
C4084       C  0.48869371  0.36274807  0.82782546    -0.03200
C4085       C  0.51192964  0.36243606  0.82803134    -0.06300
C4086       C  0.52377823  0.37029309  0.80987172     0.20600
C4087       C  0.52327163  0.35444593  0.84643825     0.18800
C4088       C  0.51117344  0.34665270  0.86437892    -0.17800
C4089       C  0.48819445  0.34694637  0.86416816    -0.20000
C4090       C  0.47674762  0.35502962  0.84601757     0.20300
C4091       C  0.45363490  0.35562138  0.84578245    -0.33000
C4092       C  0.44220950  0.36395744  0.82760621     0.01000
C4093       C  0.45441907  0.37151166  0.80949462    -0.24300
C4094       C  0.54678329  0.37042688  0.81033209    -0.28900
C4095       C  0.55843779  0.36286460  0.82872389     0.06700
C4096       C  0.54643268  0.35462036  0.84666027    -0.27600
H4097       H  0.52123293  0.38417870  0.77746273     0.11400
H4098       H  0.48115770  0.38474029  0.77712682     0.12500
H4099       H  0.51949346  0.34042119  0.87866789     0.11600
H4100       H  0.47935566  0.34091333  0.87830246     0.10800
H4101       H  0.44456002  0.34972438  0.85983146     0.16200
H4102       H  0.44599828  0.37788323  0.79531577     0.12100
H4103       H  0.55563574  0.37662992  0.79627388     0.15000
H4104       H  0.55506379  0.34865297  0.86088631     0.14800
C4105       C  0.59995630  0.28799737  0.69326474    -0.18100
C4106       C  0.59943479  0.30387015  0.70970892    -0.20300
C4107       C  0.60670850  0.29893223  0.73086569     0.20400
C4108       C  0.61346095  0.27745303  0.73577612    -0.03200
C4109       C  0.61375840  0.26141291  0.71926671    -0.06300
C4110       C  0.60762116  0.26688245  0.69774669     0.20600
C4111       C  0.62130923  0.24022049  0.72407714     0.18800
C4112       C  0.62753383  0.23492852  0.74545824    -0.17800
C4113       C  0.62752224  0.25087351  0.76173009    -0.20000
C4114       C  0.62109167  0.27227852  0.75688409     0.20300
C4115       C  0.62330909  0.28884394  0.77241797    -0.33000
C4116       C  0.61775136  0.31043626  0.76725443     0.01000
C4117       C  0.60855601  0.31529670  0.74684250    -0.24300
C4118       C  0.61032292  0.25148692  0.68095379    -0.28900
C4119       C  0.61913623  0.23075928  0.68549294     0.06700
C4120       C  0.62364777  0.22499771  0.70724849    -0.27600
H4121       H  0.59497325  0.29242614  0.67688972     0.11400
H4122       H  0.59406719  0.32021488  0.70568294     0.12500
H4123       H  0.63318711  0.21865891  0.74941309     0.11600
H4124       H  0.63316854  0.24662440  0.77794318     0.10800
H4125       H  0.63022291  0.28514971  0.78829539     0.16200
H4126       H  0.60437218  0.33202014  0.74290884     0.12100
H4127       H  0.60650628  0.25598480  0.66427688     0.15000
H4128       H  0.63011367  0.20897648  0.71100615     0.14800
C4129       C  0.76253773  0.36383235  0.74597123    -0.18100
C4130       C  0.74698527  0.36369931  0.76277536    -0.20300
C4131       C  0.72531751  0.37001584  0.75869207     0.20400
C4132       C  0.71947719  0.37728471  0.73761992    -0.03200
C4133       C  0.73519288  0.37735503  0.72060205    -0.06300
C4134       C  0.75669941  0.37023557  0.72476032     0.20600
C4135       C  0.72916588  0.38373688  0.69928574     0.18800
C4136       C  0.70770305  0.39088082  0.69543286    -0.17800
C4137       C  0.69215404  0.39086157  0.71229439    -0.20000
C4138       C  0.69775006  0.38366148  0.73333059     0.20300
C4139       C  0.68181842  0.38185257  0.74986223    -0.33000
C4140       C  0.68724043  0.37352707  0.77062908     0.01000
C4141       C  0.70923302  0.36831690  0.77505765    -0.24300
C4142       C  0.77177166  0.36879001  0.70751070    -0.28900
C4143       C  0.76564319  0.37396057  0.68593507     0.06700
C4144       C  0.74442813  0.38203847  0.68208368    -0.27600
H4145       H  0.77902739  0.35841212  0.74945687     0.11400
H4146       H  0.75179780  0.35817392  0.77886954     0.12500
H4147       H  0.70278736  0.39600309  0.67924279     0.11600
H4148       H  0.67558450  0.39596521  0.70873166     0.10800
H4149       H  0.66499964  0.38604146  0.74623157     0.16200
H4150       H  0.71369854  0.36198606  0.79096475     0.12100
H4151       H  0.78807851  0.36271886  0.71081492     0.15000
H4152       H  0.73951538  0.38619063  0.66561078     0.14800
C4153       C  0.98848508  0.10770882  0.63906985    -0.18100
C4154       C  0.01147796  0.10770833  0.63865175    -0.20300
C4155       C  0.02353351  0.11494127  0.65679973     0.20400
C4156       C  0.01214977  0.12255908  0.67538444    -0.03200
C4157       C  0.98898644  0.12251831  0.67582403    -0.06300
C4158       C  0.97704382  0.11490967  0.65765287     0.20600
C4159       C  0.97781499  0.12980993  0.69462904     0.18800
C4160       C  0.98973753  0.13735448  0.71265213    -0.17800
C4161       C  0.01256991  0.13743820  0.71220165    -0.20000
C4162       C  0.02388527  0.12994773  0.69373432     0.20300
C4163       C  0.04675378  0.12943798  0.69357169    -0.33000
C4164       C  0.05846023  0.12142603  0.67543329     0.01000
C4165       C  0.04667841  0.11440212  0.65690832    -0.24300
C4166       C  0.95395478  0.11433209  0.65858717    -0.28900
C4167       C  0.94272474  0.12119669  0.67754622     0.06700
C4168       C  0.95491881  0.12915162  0.69532647    -0.27600
H4169       H  0.97964636  0.10186064  0.62490890     0.11400
H4170       H  0.01982940  0.10186170  0.62418649     0.12500
H4171       H  0.98139476  0.14302885  0.72719990     0.11600
H4172       H  0.02139726  0.14317834  0.72641684     0.10800
H4173       H  0.05544821  0.13502137  0.70793841     0.16200
H4174       H  0.05543140  0.10821818  0.64281923     0.12100
H4175       H  0.94479391  0.10818595  0.64475470     0.15000
H4176       H  0.94659603  0.13458109  0.70998929     0.14800
C4177       C  0.88185137  0.98162809  0.71784453    -0.18100
C4178       C  0.88200810  0.00440488  0.71715531    -0.20300
C4179       C  0.87916812  0.01542881  0.69729266     0.20400
C4180       C  0.87613547  0.00342866  0.67789230    -0.03200
C4181       C  0.87621545  0.98032519  0.67855811    -0.06300
C4182       C  0.87897287  0.96946050  0.69867019     0.20600
C4183       C  0.87359015  0.96812966  0.65917904     0.18800
C4184       C  0.87064702  0.97928477  0.63933370    -0.17800
C4185       C  0.87029992  0.00220614  0.63871359    -0.20000
C4186       C  0.87307830  0.01449060  0.65789301     0.20300
C4187       C  0.87302033  0.03756155  0.65749165    -0.33000
C4188       C  0.87645949  0.04958775  0.67682378     0.01000
C4189       C  0.87941938  0.03825988  0.69659442    -0.24300
C4190       C  0.87883947  0.94661071  0.69935990    -0.28900
C4191       C  0.87636760  0.93415850  0.68021017     0.06700
C4192       C  0.87392970  0.94507335  0.66006786    -0.27600
H4193       H  0.88404158  0.97351300  0.73340953     0.11400
H4194       H  0.88433840  0.01341121  0.73219015     0.12500
H4195       H  0.86855635  0.97027616  0.62426997     0.11600
H4196       H  0.86796077  0.01033059  0.62318006     0.10800
H4197       H  0.87072829  0.04610293  0.64217017     0.16200
H4198       H  0.88179559  0.04727259  0.71163316     0.12100
H4199       H  0.88100529  0.93846666  0.71492581     0.15000
H4200       H  0.87200532  0.93566836  0.64521769     0.14800
C4201       C  0.74933367  0.14866744  0.60032025    -0.18100
C4202       C  0.77132750  0.14367810  0.60411348    -0.20300
C4203       C  0.77715187  0.12924017  0.62089958     0.20400
C4204       C  0.76054918  0.11874666  0.63316355    -0.03200
C4205       C  0.73833983  0.12351981  0.62910942    -0.06300
C4206       C  0.73279157  0.13911770  0.61310631     0.20600
C4207       C  0.72181474  0.11391170  0.64216517     0.18800
C4208       C  0.72758918  0.09908335  0.65861300    -0.17800
C4209       C  0.74959367  0.09462253  0.66285260    -0.20000
C4210       C  0.76615792  0.10475111  0.65055149     0.20300
C4211       C  0.78815666  0.10248841  0.65644113    -0.33000
C4212       C  0.80461356  0.11410871  0.64528740     0.01000
C4213       C  0.79918410  0.12649925  0.62680444    -0.24300
C4214       C  0.71103022  0.14608004  0.61131910    -0.28900
C4215       C  0.69478125  0.13741447  0.62510720     0.06700
C4216       C  0.70002073  0.12057724  0.63969382    -0.27600
H4217       H  0.74531431  0.16058460  0.58790406     0.11400
H4218       H  0.78383397  0.15185847  0.59453664     0.12500
H4219       H  0.71512153  0.09163352  0.66881852     0.11600
H4220       H  0.75367534  0.08384555  0.67625512     0.10800
H4221       H  0.79236376  0.09304676  0.67080849     0.16200
H4222       H  0.81182133  0.13579253  0.61846728     0.12100
H4223       H  0.70694380  0.15925704  0.60024240     0.15000
H4224       H  0.68753325  0.11426991  0.65064591     0.14800
C4225       C  0.83532165  0.24329746  0.60206517    -0.18100
C4226       C  0.83798594  0.22101638  0.60616866    -0.20300
C4227       C  0.85372618  0.21380613  0.62114985     0.20400
C4228       C  0.86753925  0.22916472  0.63146163    -0.03200
C4229       C  0.86473356  0.25174572  0.62742126    -0.06300
C4230       C  0.84826128  0.25877929  0.61295758     0.20600
C4231       C  0.87744083  0.26728295  0.63885121     0.18800
C4232       C  0.89346618  0.25997269  0.65353698    -0.17800
C4233       C  0.89637162  0.23759585  0.65740770    -0.20000
C4234       C  0.88324234  0.22205687  0.64676090     0.20300
C4235       C  0.88461501  0.19970485  0.65204892    -0.33000
C4236       C  0.87009011  0.18455981  0.64264116     0.01000
C4237       C  0.85500654  0.19166547  0.62692297    -0.24300
C4238       C  0.84390051  0.28112534  0.61082361    -0.28900
C4239       C  0.85541766  0.29666829  0.62322561     0.06700
C4240       C  0.87282671  0.28973806  0.63653294    -0.27600
H4241       H  0.82258768  0.24846107  0.59092620     0.11400
H4242       H  0.82729436  0.20945229  0.59808447     0.12500
H4243       H  0.90335100  0.27159017  0.66251068     0.11600
H4244       H  0.90846349  0.23247395  0.66924975     0.10800
H4245       H  0.89582326  0.19432585  0.66464136     0.16200
H4246       H  0.84351249  0.18006447  0.62002381     0.12100
H4247       H  0.83026510  0.28637487  0.60081096     0.15000
H4248       H  0.88138273  0.30156650  0.64655171     0.14800
C4249       C  0.63854820  0.11891351  0.01393425    -0.18100
C4250       C  0.63867874  0.11923004  0.99097549    -0.20300
C4251       C  0.65836187  0.11698354  0.97926415     0.20400
C4252       C  0.67808439  0.11442620  0.99097929    -0.03200
C4253       C  0.67791255  0.11379860  0.01413125    -0.06300
C4254       C  0.65806838  0.11613469  0.02572794     0.20600
C4255       C  0.69764954  0.11079025  0.02564256     0.18800
C4256       C  0.71736306  0.10874047  0.01405098    -0.17800
C4257       C  0.71757129  0.10963884  0.99125031    -0.20000
C4258       C  0.69804707  0.11243716  0.97958586     0.20300
C4259       C  0.69825358  0.11322364  0.95671774    -0.33000
C4260       C  0.67876752  0.11556912  0.94471036     0.01000
C4261       C  0.65876279  0.11726631  0.95614033    -0.24300
C4262       C  0.65814830  0.11554540  0.04882899    -0.28900
C4263       C  0.67780832  0.11217807  0.06042535     0.06700
C4264       C  0.69742730  0.10983948  0.04854018    -0.27600
H4265       H  0.62311886  0.12073089  0.02247489     0.11400
H4266       H  0.62335157  0.12128496  0.98237502     0.12500
H4267       H  0.73267309  0.10646722  0.02263820     0.11600
H4268       H  0.73303494  0.10805669  0.98272001     0.10800
H4269       H  0.71373371  0.11164542  0.94818950     0.16200
H4270       H  0.64365682  0.11912691  0.94710298     0.12100
H4271       H  0.64292079  0.11736445  0.05773582     0.15000
H4272       H  0.71271501  0.10748895  0.05716650     0.14800
C4273       C  0.70932155  0.00122643  0.90181970    -0.18100
C4274       C  0.70906966  0.97845607  0.90175056    -0.20300
C4275       C  0.69274241  0.96706747  0.89040408     0.20400
C4276       C  0.67636906  0.97865495  0.87912379    -0.03200
C4277       C  0.67675641  0.00170743  0.87902315    -0.06300
C4278       C  0.69333219  0.01297343  0.89043442     0.20600
C4279       C  0.66069773  0.01345085  0.86743954     0.18800
C4280       C  0.64432478  0.00195766  0.85614382    -0.17800
C4281       C  0.64384004  0.97906590  0.85637396    -0.20000
C4282       C  0.65978200  0.96721755  0.86781202     0.20300
C4283       C  0.65971051  0.94419710  0.86792843    -0.33000
C4284       C  0.67639170  0.93272877  0.87873499     0.01000
C4285       C  0.69273001  0.94427175  0.88994406    -0.24300
C4286       C  0.69376886  0.03579804  0.89023008    -0.28900
C4287       C  0.67792516  0.04775790  0.87871931     0.06700
C4288       C  0.66138084  0.03642863  0.86733323    -0.27600
H4289       H  0.72213283  0.00966263  0.91067849     0.11400
H4290       H  0.72170180  0.96974110  0.91052119     0.12500
H4291       H  0.63187711  0.01067820  0.84712114     0.11600
H4292       H  0.63104729  0.97062546  0.84750362     0.10800
H4293       H  0.64723571  0.93525691  0.85907647     0.16200
H4294       H  0.70554982  0.93538409  0.89830788     0.12100
H4295       H  0.70659546  0.04425486  0.89906111     0.15000
H4296       H  0.64910742  0.04544907  0.85835411     0.14800
C4297       C  0.60221423  0.14008306  0.74716251    -0.18100
C4298       C  0.60562491  0.13552298  0.76935905    -0.20300
C4299       C  0.62410432  0.12375617  0.77614675     0.20400
C4300       C  0.63868466  0.11558305  0.76018922    -0.03200
C4301       C  0.63538349  0.12039915  0.73781402    -0.06300
C4302       C  0.61728041  0.13310215  0.73128874     0.20600
C4303       C  0.65098797  0.11370663  0.72217344     0.18800
C4304       C  0.66898545  0.10117258  0.72876571    -0.17800
C4305       C  0.67211130  0.09620983  0.75082024    -0.20000
C4306       C  0.65740498  0.10386701  0.76667776     0.20300
C4307       C  0.66207185  0.10150951  0.78893876    -0.33000
C4308       C  0.64879664  0.11134264  0.80496398     0.01000
C4309       C  0.62918140  0.12146577  0.79853737    -0.24300
C4310       C  0.61536403  0.13971387  0.70929171    -0.28900
C4311       C  0.63168528  0.13426679  0.69401516     0.06700
C4312       C  0.64908663  0.12078510  0.70047094    -0.27600
H4313       H  0.58818508  0.14978806  0.74249816     0.11400
H4314       H  0.59418218  0.14185947  0.78128986     0.12500
H4315       H  0.68104580  0.09581870  0.71694785     0.11600
H4316       H  0.68656118  0.08716986  0.75556944     0.10800
H4317       H  0.67719637  0.09365122  0.79377748     0.16200
H4318       H  0.61900574  0.12929688  0.81073164     0.12100
H4319       H  0.60218151  0.15048030  0.70445802     0.15000
H4320       H  0.66179741  0.11676538  0.68876590     0.14800
C4321       C  0.61153239  0.21894611  0.83575174    -0.18100
C4322       C  0.60787312  0.24128145  0.83355796    -0.20300
C4323       C  0.61589044  0.25591365  0.84922547     0.20400
C4324       C  0.62689439  0.24801655  0.86781353    -0.03200
C4325       C  0.63036389  0.22534273  0.87017667    -0.06300
C4326       C  0.62310429  0.21088863  0.85373901     0.20600
C4327       C  0.64229371  0.21729254  0.88817075     0.18800
C4328       C  0.64991091  0.23201779  0.90404054    -0.17800
C4329       C  0.64670904  0.25457068  0.90153825    -0.20000
C4330       C  0.63566323  0.26283121  0.88320622     0.20300
C4331       C  0.63460255  0.28551934  0.87906608    -0.33000
C4332       C  0.62489724  0.29322946  0.85970122     0.01000
C4333       C  0.61453074  0.27835101  0.84564954    -0.24300
C4334       C  0.62876851  0.18883646  0.85475962    -0.28900
C4335       C  0.64156013  0.18089725  0.87194867     0.06700
C4336       C  0.64758533  0.19492589  0.88911845    -0.27600
H4337       H  0.60590010  0.20803510  0.82301812     0.11400
H4338       H  0.59951769  0.24719354  0.81913567     0.12500
H4339       H  0.65906011  0.22616518  0.91798807     0.11600
H4340       H  0.65348929  0.26558987  0.91359287     0.10800
H4341       H  0.64291170  0.29688050  0.88979359     0.16200
H4342       H  0.60709123  0.28424446  0.83069381     0.12100
H4343       H  0.62435984  0.17801300  0.84144999     0.15000
H4344       H  0.65787318  0.18883983  0.90215879     0.14800
C4345       C  0.81676824  0.08783424  0.79982381    -0.18100
C4346       C  0.80089883  0.08796695  0.81637263    -0.20300
C4347       C  0.77903973  0.09304797  0.81159131     0.20400
C4348       C  0.77295318  0.09712989  0.78971732    -0.03200
C4349       C  0.78894667  0.09698343  0.77303318    -0.06300
C4350       C  0.81106497  0.09276322  0.77818285     0.20600
C4351       C  0.78299764  0.10235119  0.75143267     0.18800
C4352       C  0.76102185  0.10660297  0.74644266    -0.17800
C4353       C  0.74519450  0.10672845  0.76294314    -0.20000
C4354       C  0.75112611  0.10263067  0.78467518     0.20300
C4355       C  0.73591209  0.10523696  0.80158079    -0.33000
C4356       C  0.74214756  0.10235586  0.82343781     0.01000
C4357       C  0.76344391  0.09540166  0.82836815    -0.24300
C4358       C  0.82720451  0.09486601  0.76188069    -0.28900
C4359       C  0.82142646  0.10169193  0.74078229     0.06700
C4360       C  0.79929230  0.10470122  0.73549210    -0.27600
H4361       H  0.83363185  0.08453117  0.80407337     0.11400
H4362       H  0.80586516  0.08475564  0.83303819     0.12500
H4363       H  0.75619712  0.11056449  0.72989239     0.11600
H4364       H  0.72845367  0.11077378  0.75882123     0.10800
H4365       H  0.71942805  0.11058700  0.79785986     0.16200
H4366       H  0.76824871  0.09340250  0.84528113     0.12100
H4367       H  0.84432521  0.09286994  0.76598953     0.15000
H4368       H  0.79491388  0.11004716  0.71918548     0.14800
C4369       C  0.88618882  0.35321431  0.01260130    -0.18100
C4370       C  0.88662952  0.35359848  0.98966786    -0.20300
C4371       C  0.87841043  0.33594311  0.97752489     0.20400
C4372       C  0.86925152  0.31794169  0.98873967    -0.03200
C4373       C  0.86882138  0.31754562  0.01186245    -0.06300
C4374       C  0.87753638  0.33515743  0.02390288     0.20600
C4375       C  0.86004142  0.29929108  0.02289998     0.18800
C4376       C  0.85133725  0.28185888  0.01086106    -0.17800
C4377       C  0.85174020  0.28225825  0.98806010    -0.20000
C4378       C  0.86086269  0.30009499  0.97688259     0.20300
C4379       C  0.86205837  0.30010960  0.95405465    -0.33000
C4380       C  0.87166808  0.31764086  0.94256158     0.01000
C4381       C  0.87952218  0.33573374  0.95446185    -0.24300
C4382       C  0.87785609  0.33414037  0.04694945    -0.28900
C4383       C  0.86972615  0.31560454  0.05805903     0.06700
C4384       C  0.86050528  0.29848366  0.04577105    -0.27600
H4385       H  0.89288814  0.36695067  0.02150768     0.11400
H4386       H  0.89364836  0.36762095  0.98143025     0.12500
H4387       H  0.84446123  0.26775634  0.01909166     0.11600
H4388       H  0.84515761  0.26845782  0.97915677     0.10800
H4389       H  0.85570009  0.28614533  0.94522792     0.16200
H4390       H  0.88687651  0.34937121  0.94586423     0.12100
H4391       H  0.88493372  0.34748466  0.05616558     0.15000
H4392       H  0.85397484  0.28421219  0.05400720     0.14800
C4393       C  0.99001395  0.35555337  0.86797160    -0.18100
C4394       C  0.01298496  0.35497881  0.86807344    -0.20300
C4395       C  0.02416965  0.33506237  0.86999850     0.20400
C4396       C  0.01197346  0.31551888  0.87154666    -0.03200
C4397       C  0.98879257  0.31612692  0.87176936    -0.06300
C4398       C  0.97771086  0.33624141  0.86999242     0.20600
C4399       C  0.97673882  0.29659467  0.87402771     0.18800
C4400       C  0.98783289  0.27663050  0.87550696    -0.17800
C4401       C  0.01069887  0.27600360  0.87497621    -0.20000
C4402       C  0.02291475  0.29534586  0.87317326     0.20300
C4403       C  0.04587120  0.29481751  0.87334330    -0.33000
C4404       C  0.05828587  0.31420590  0.87247311     0.01000
C4405       C  0.04725805  0.33431856  0.87068922    -0.24300
C4406       C  0.95459690  0.33666263  0.87053859    -0.28900
C4407       C  0.94248192  0.31723382  0.87335509     0.06700
C4408       C  0.95380898  0.29730406  0.87496783    -0.27600
H4409       H  0.98186463  0.37116300  0.86655711     0.11400
H4410       H  0.02201395  0.37016429  0.86675215     0.12500
H4411       H  0.97881434  0.26147440  0.87716644     0.11600
H4412       H  0.01884475  0.26037494  0.87623951     0.10800
H4413       H  0.05408936  0.27923506  0.87481286     0.16200
H4414       H  0.05662102  0.34934484  0.86984758     0.12100
H4415       H  0.94608691  0.35210267  0.86928816     0.15000
H4416       H  0.94472457  0.28220266  0.87687125     0.14800
C4417       C  0.75437879  0.25305998  0.87403540    -0.18100
C4418       C  0.73892977  0.23620317  0.87369848    -0.20300
C4419       C  0.74466512  0.21509769  0.88046233     0.20400
C4420       C  0.76587199  0.21110948  0.88852534    -0.03200
C4421       C  0.78148290  0.22813225  0.88884060    -0.06300
C4422       C  0.77581693  0.24906644  0.88108733     0.20600
C4423       C  0.80301977  0.22392540  0.89588351     0.18800
C4424       C  0.80844100  0.20305874  0.90361628    -0.17800
C4425       C  0.79295320  0.18618792  0.90332839    -0.20000
C4426       C  0.77178882  0.18990635  0.89530976     0.20300
C4427       C  0.75677806  0.17264235  0.89303781    -0.33000
C4428       C  0.73598895  0.17631140  0.88391785     0.01000
C4429       C  0.72984913  0.19775278  0.87838654    -0.24300
C4430       C  0.79194991  0.26528489  0.87935562    -0.28900
C4431       C  0.81381695  0.26071023  0.88476288     0.06700
C4432       C  0.81902233  0.24028230  0.89392425    -0.27600
H4433       H  0.74973480  0.26907062  0.86814974     0.11400
H4434       H  0.72265887  0.23953904  0.86758300     0.12500
H4435       H  0.82486188  0.19960327  0.90925376     0.11600
H4436       H  0.79772903  0.17007277  0.90878136     0.10800
H4437       H  0.76162522  0.15623791  0.89749594     0.16200
H4438       H  0.71381900  0.20085933  0.87153252     0.12100
H4439       H  0.78769960  0.28103908  0.87252460     0.15000
H4440       H  0.83577073  0.23667722  0.89842431     0.14800
C4441       C  0.87232442  0.25126654  0.76036941    -0.18100
C4442       C  0.87177958  0.23531549  0.74408140    -0.20300
C4443       C  0.87685574  0.21355735  0.74903235     0.20400
C4444       C  0.88315225  0.20790042  0.77046224    -0.03200
C4445       C  0.88389560  0.22403335  0.78686848    -0.06300
C4446       C  0.87806222  0.24571621  0.78183009     0.20600
C4447       C  0.88966637  0.21831385  0.80846473     0.18800
C4448       C  0.89494783  0.19658547  0.81332777    -0.17800
C4449       C  0.89409334  0.18056782  0.79707609    -0.20000
C4450       C  0.88803472  0.18602493  0.77566363     0.20300
C4451       C  0.88613769  0.16989510  0.75953518    -0.33000
C4452       C  0.87925618  0.17531595  0.73829327     0.01000
C4453       C  0.87508133  0.19727128  0.73308563    -0.24300
C4454       C  0.87711772  0.26124487  0.79853600    -0.28900
C4455       C  0.88211977  0.25546319  0.82013662     0.06700
C4456       C  0.88905215  0.23421405  0.82496945    -0.27600
H4457       H  0.86788477  0.26787729  0.75626689     0.11400
H4458       H  0.86696445  0.23991939  0.72769819     0.12500
H4459       H  0.89932429  0.19189424  0.82980330     0.11600
H4460       H  0.89786722  0.16383751  0.80133422     0.10800
H4461       H  0.88932158  0.15302188  0.76374650     0.16200
H4462       H  0.86979223  0.20163466  0.71677140     0.12100
H4463       H  0.87162745  0.27768108  0.79494370     0.15000
H4464       H  0.89249747  0.22974792  0.84174158     0.14800
C4465       C  0.85301237  0.39349033  0.74359283    -0.18100
C4466       C  0.85621470  0.39056488  0.76608270    -0.20300
C4467       C  0.86755251  0.37227977  0.77396176     0.20400
C4468       C  0.87672585  0.35741855  0.75886766    -0.03200
C4469       C  0.87331809  0.36025298  0.73620487    -0.06300
C4470       C  0.86097194  0.37812855  0.72854245     0.20600
C4471       C  0.88095055  0.34434712  0.72136959     0.18800
C4472       C  0.89304472  0.32653494  0.72908750    -0.17800
C4473       C  0.89657836  0.32383848  0.75144969    -0.20000
C4474       C  0.88795236  0.33883573  0.76645363     0.20300
C4475       C  0.88882639  0.33458426  0.78887760    -0.33000
C4476       C  0.87807134  0.34819636  0.80392928     0.01000
C4477       C  0.86841103  0.36764706  0.79653360    -0.24300
C4478       C  0.85554833  0.37944165  0.70622189    -0.28900
C4479       C  0.86179896  0.36273966  0.69177543     0.06700
C4480       C  0.87506975  0.34567790  0.69931072    -0.27600
H4481       H  0.84355431  0.40734384  0.73803089     0.11400
H4482       H  0.84913150  0.40219973  0.77734927     0.12500
H4483       H  0.89908658  0.31425245  0.71789198     0.11600
H4484       H  0.90524522  0.30949397  0.75706956     0.10800
H4485       H  0.89622726  0.31953569  0.79454254     0.16200
H4486       H  0.85983346  0.37801192  0.80802581     0.12100
H4487       H  0.84492645  0.39236598  0.70048294     0.15000
H4488       H  0.87967247  0.33269534  0.68818920     0.14800
C4489       C  0.74352253  0.39520577  0.85181199    -0.18100
C4490       C  0.76629478  0.39268744  0.85285650    -0.20300
C4491       C  0.77554393  0.37543466  0.86476222     0.20400
C4492       C  0.76168690  0.36120198  0.87659926    -0.03200
C4493       C  0.73868463  0.36353514  0.87526563    -0.06300
C4494       C  0.72954576  0.38036167  0.86244142     0.20600
C4495       C  0.72487385  0.34807186  0.88546831     0.18800
C4496       C  0.73408812  0.33125870  0.89797598    -0.17800
C4497       C  0.75681407  0.32915391  0.89958045    -0.20000
C4498       C  0.77073993  0.34371772  0.88855830     0.20300
C4499       C  0.79343384  0.34022528  0.88811430    -0.33000
C4500       C  0.80714228  0.35346147  0.87527700     0.01000
C4501       C  0.79820639  0.37129873  0.86395203    -0.24300
C4502       C  0.70675312  0.38095608  0.85905294    -0.28900
C4503       C  0.69319753  0.36448897  0.86769822     0.06700
C4504       C  0.70225088  0.34864206  0.88156581    -0.27600
H4505       H  0.73683337  0.40823409  0.84193168     0.11400
H4506       H  0.77665960  0.40385960  0.84378302     0.12500
H4507       H  0.72371320  0.31927476  0.90593029     0.11600
H4508       H  0.76349599  0.31561344  0.90876788     0.10800
H4509       H  0.80024851  0.32610430  0.89631755     0.16200
H4510       H  0.80872039  0.38119948  0.85363464     0.12100
H4511       H  0.69988397  0.39284038  0.84790242     0.15000
H4512       H  0.69185835  0.33572197  0.88790930     0.14800
loop_ 
_geom_bond_atom_site_label_1 
_geom_bond_atom_site_label_2 
_geom_bond_distance 
_geom_bond_site_symmetry_2 
_ccdc_geom_bond_type 
O1          Cr19   1.977       .  S
O1            C9   1.263       .  A
O2          Cr19   1.997       .  S
O2            C3   1.257       .  A
C3            O4   1.260       .  A
C3         C4500   1.475       .  S
O4          Cr20   2.006       .  S
O5          Cr20   2.034       .  S
O5            C6   1.272       .  A
C6            O7   1.260       .  A
C6         C4380   1.493       .  S
O7          Cr21   1.963       .  S
O8          Cr21   2.014       .  S
O8            C9   1.270       .  A
C9         C4431   1.482       .  S
O10         Cr19   1.988       .  S
O10          C18   1.260       .  A
O11         Cr19   1.948       .  S
O11          C12   1.257       .  A
C12          O13   1.277       .  A
C12        C4476   1.479       .  S
O13         Cr20   2.054       .  S
O14         Cr20   2.000       .  S
O14          C15   1.265       .  A
C15          O16   1.266       .  A
C15        C4407   1.492       .  S
O16         Cr21   2.002       .  S
O17         Cr21   1.990       .  S
O17          C18   1.260       .  A
C18        C4455   1.466       .  S
Cr19         O22   1.767       .  S
Cr20         O22   1.779       .  S
Cr21         O22   1.768       .  S
O23         Cr41   1.992       .  S
O23          C31   1.260       .  A
O24         Cr41   1.953       .  S
O24          C25   1.256       .  A
C25          O26   1.277       .  A
C25        C4308   1.486       .  S
O26         Cr42   2.062       .  S
O27         Cr42   1.983       .  S
O27          C28   1.263       .  A
C28          O29   1.269       .  A
C28        C4287   1.486       .  S
O29         Cr43   2.007       .  S
O30         Cr43   1.991       .  S
O30          C31   1.259       .  A
C31        C4356   1.471       .  S
O32         Cr41   1.964       .  S
O32          C40   1.260       .  A
O33         Cr41   1.997       .  S
O33          C34   1.261       .  A
C34          O35   1.259       .  A
C34        C4335   1.471       .  S
O35         Cr42   1.996       .  S
O36         Cr42   2.039       .  S
O36          C37   1.272       .  A
C37          O38   1.261       .  A
C37        C4260   1.493       .  S
O38         Cr43   1.969       .  S
O39         Cr43   2.027       .  S
O39          C40   1.272       .  A
C40        C4428   1.484       .  S
Cr41         O44   1.759       .  S
Cr42         O44   1.775       .  S
Cr43         O44   1.767       .  S
O45         Cr63   1.970       .  S
O45          C53   1.261       .  A
O46         Cr63   2.001       .  S
O46          C47   1.261       .  A
C47          O48   1.263       .  A
C47        C4236   1.477       .  S
O48         Cr64   2.006       .  S
O49         Cr64   2.024       .  S
O49          C50   1.269       .  A
C50          O51   1.262       .  A
C50        C4167   1.491       .  S
O51         Cr65   1.975       .  S
O52         Cr65   2.014       .  S
O52          C53   1.269       .  A
C53        C4452   1.480       .  S
O54         Cr63   1.990       .  S
O54          C62   1.261       .  A
O55         Cr63   1.954       .  S
O55          C56   1.255       .  A
C56          O57   1.272       .  A
C56        C4212   1.472       .  S
O57         Cr64   2.039       .  S
O58         Cr64   1.999       .  S
O58          C59   1.266       .  A
C59          O60   1.268       .  A
C59        C4188   1.490       .  S
O60         Cr65   2.001       .  S
O61         Cr65   1.993       .  S
O61          C62   1.260       .  A
C62        C4359   1.471       .  S
Cr63         O66   1.763       .  S
Cr64         O66   1.777       .  S
Cr65         O66   1.767       .  S
O67         Cr85   1.980       .  S
O67          C75   1.263       .  A
O68         Cr85   1.994       .  S
O68          C69   1.259       .  A
C69          O70   1.263       .  A
C69        C4503   1.477       .  S
O70         Cr86   2.009       .  S
O71         Cr86   2.034       .  S
O71          C72   1.272       .  A
C72          O73   1.261       .  A
C72        C4068   1.486       .  S
O73         Cr87   1.965       .  S
O74         Cr87   2.024       .  S
O74          C75   1.271       .  A
C75        C4140   1.491       .  S
O76         Cr85   1.993       .  S
O76          C84   1.262       .  A
O77         Cr85   1.945       .  S
O77          C78   1.256       .  A
C78          O79   1.274       .  A
C78        C4332   1.480       .  S
O79         Cr86   2.053       .  S
O80         Cr86   2.011       .  S
O80          C81   1.268       .  A
C81          O82   1.267       .  A
C81        C4095   1.502       .  S
O82         Cr87   2.006       .  S
O83         Cr87   1.985       .  S
O83          C84   1.259       .  A
C84        C4116   1.469       .  S
Cr85         O88   1.767       .  S
Cr86         O88   1.782       .  S
Cr87         O88   1.769       .  S
O89        Cr107   1.988       .  S
O89          C97   1.260       .  A
O90        Cr107   1.954       .  S
O90          C91   1.256       .  A
C91          O92   1.277       .  A
C91        C4239   1.482       .  S
O92        Cr108   2.059       .  S
O93        Cr108   1.993       .  S
O93          C94   1.265       .  A
C94          O95   1.271       .  A
C94        C4023   1.496       .  S
O95        Cr109   2.017       .  S
O96        Cr109   1.991       .  S
O96          C97   1.259       .  A
C97        C4044   1.470       .  S
O98        Cr107   1.968       .  S
O98         C106   1.261       .  A
O99        Cr107   1.998       .  S
O99         C100   1.260       .  A
C100        O101   1.260       .  A
C100       C4479   1.474       .  S
O101       Cr108   2.002       .  S
O102       Cr108   2.033       .  S
O102        C103   1.272       .  A
C103        O104   1.260       .  A
C103       C3996   1.489       .  S
O104       Cr109   1.963       .  S
O105       Cr109   2.038       .  S
O105        C106   1.275       .  A
C106       C4143   1.491       .  S
Cr107       O110   1.761       .  S
Cr108       O110   1.775       .  S
Cr109       O110   1.770       .  S
O111       Cr129   1.967       .  S
O111        C119   1.262       .  A
O112       Cr129   2.000       .  S
O112        C113   1.261       .  A
C113        O114   1.263       .  A
C113       C4311   1.480       .  S
O114       Cr130   2.010       .  S
O115       Cr130   2.019       .  S
O115        C116   1.269       .  A
C116        O117   1.258       .  A
C116       C3948   1.482       .  S
O117       Cr131   1.962       .  S
O118       Cr131   2.019       .  S
O118        C119   1.271       .  A
C119       C4119   1.481       .  S
O120       Cr129   1.986       .  S
O120        C128   1.260       .  A
O121       Cr129   1.963       .  S
O121        C122   1.258       .  A
C122        O123   1.272       .  A
C122       C4215   1.469       .  S
O123       Cr130   2.033       .  S
O124       Cr130   1.992       .  S
O124        C125   1.264       .  A
C125        O126   1.267       .  A
C125       C3972   1.488       .  S
O126       Cr131   1.999       .  S
O127       Cr131   1.992       .  S
O127        C128   1.258       .  A
C128       C4047   1.470       .  S
Cr129       O132   1.758       .  S
Cr130       O132   1.774       .  S
Cr131       O132   1.770       .  S
O133       Cr151   1.994       .  S
O133        C141   1.263       .  A
O134       Cr151   1.951       .  S
O134        C135   1.255       .  A
C135        O136   1.274       .  A
C135       C3879   1.478       .  S
O136       Cr152   2.050       .  S
O137       Cr152   1.996       .  S
O137        C138   1.264       .  A
C138        O139   1.268       .  A
C138       C3831   1.489       .  S
O139       Cr153   2.002       .  S
O140       Cr153   1.987       .  S
O140        C141   1.259       .  A
C141       C3924   1.471       .  S
O142       Cr151   1.969       .  S
O142        C150   1.260       .  A
O143       Cr151   1.999       .  S
O143        C144   1.262       .  A
C144        O145   1.263       .  A
C144       C3852   1.475       .  S
O145       Cr152   2.004       .  S
O146       Cr152   2.040       .  S
O146        C147   1.273       .  A
C147        O148   1.260       .  A
C147       C4164   1.493       .  S
O148       Cr153   1.962       .  S
O149       Cr153   2.026       .  S
O149        C150   1.271       .  A
C150       C3900   1.485       .  S
Cr151       O154   1.757       .  S
Cr152       O154   1.776       .  S
Cr153       O154   1.766       .  S
O155       Cr173   1.972       .  S
O155        C163   1.263       .  A
O156       Cr173   1.998       .  S
O156        C157   1.260       .  A
C157        O158   1.261       .  A
C157       C3780   1.475       .  S
O158       Cr174   2.004       .  S
O159       Cr174   2.030       .  S
O159        C160   1.271       .  A
C160        O161   1.259       .  A
C160       C3708   1.487       .  S
O161       Cr175   1.962       .  S
O162       Cr175   2.024       .  S
O162        C163   1.272       .  A
C163       C3756   1.486       .  S
O164       Cr173   1.989       .  S
O164        C172   1.260       .  A
O165       Cr173   1.961       .  S
O165        C166   1.258       .  A
C166        O167   1.276       .  A
C166       C3804   1.477       .  S
O167       Cr174   2.045       .  S
O168       Cr174   1.991       .  S
O168        C169   1.264       .  A
C169        O170   1.268       .  A
C169       C3735   1.489       .  S
O170       Cr175   2.003       .  S
O171       Cr175   1.991       .  S
O171        C172   1.258       .  A
C172       C3927   1.470       .  S
Cr173       O176   1.762       .  S
Cr174       O176   1.774       .  S
Cr175       O176   1.768       .  S
O177       Cr195   1.977       .  S
O177        C185   1.263       .  A
O178       Cr195   1.996       .  S
O178        C179   1.257       .  A
C179        O180   1.262       .  A
C179       C3684   1.475       .  S
O180       Cr196   2.008       .  S
O181       Cr196   2.027       .  S
O181        C182   1.271       .  A
C182        O183   1.262       .  A
C182       C4404   1.492       .  S
O183       Cr197   1.976       .  S
O184       Cr197   2.018       .  S
O184        C185   1.271       .  A
C185       C3903   1.485       .  S
O186       Cr195   1.986       .  S
O186        C194   1.260       .  A
O187       Cr195   1.958       .  S
O187        C188   1.258       .  A
C188        O189   1.275       .  A
C188       C3660   1.480       .  S
O189       Cr196   2.050       .  S
O190       Cr196   2.006       .  S
O190        C191   1.267       .  A
C191        O192   1.267       .  A
C191       C3636   1.496       .  S
O192       Cr197   1.999       .  S
O193       Cr197   1.999       .  S
O193        C194   1.261       .  A
C194       C3759   1.474       .  S
Cr195       O198   1.766       .  S
Cr196       O198   1.778       .  S
Cr197       O198   1.770       .  S
O199       Cr217   1.996       .  S
O199        C207   1.263       .  A
O200       Cr217   1.939       .  S
O200        C201   1.255       .  A
C201        O202   1.277       .  A
C201       C3783   1.479       .  S
O202       Cr218   2.056       .  S
O203       Cr218   2.003       .  S
O203        C204   1.266       .  A
C204        O205   1.266       .  A
C204       C4092   1.501       .  S
O205       Cr219   2.009       .  S
O206       Cr219   1.982       .  S
O206        C207   1.260       .  A
C207       C3615   1.469       .  S
O208       Cr217   1.976       .  S
O208        C216   1.261       .  A
O209       Cr217   1.995       .  S
O209        C210   1.258       .  A
C210        O211   1.261       .  A
C210       C3663   1.477       .  S
O211       Cr218   2.009       .  S
O212       Cr218   2.035       .  S
O212        C213   1.273       .  A
C213        O214   1.259       .  A
C213       C3564   1.488       .  S
O214       Cr219   1.957       .  S
O215       Cr219   2.012       .  S
O215        C216   1.270       .  A
C216       C3591   1.481       .  S
Cr217       O220   1.767       .  S
Cr218       O220   1.776       .  S
Cr219       O220   1.767       .  S
O221       Cr239   1.966       .  S
O221        C229   1.260       .  A
O222       Cr239   1.994       .  S
O222        C223   1.257       .  A
C223        O224   1.263       .  A
C223       C3687   1.478       .  S
O224       Cr240   2.014       .  S
O225       Cr240   2.037       .  S
O225        C226   1.273       .  A
C226        O227   1.259       .  A
C226       C3495   1.494       .  S
O227       Cr241   1.966       .  S
O228       Cr241   2.020       .  S
O228        C229   1.272       .  A
C229       C3588   1.478       .  S
O230       Cr239   1.985       .  S
O230        C238   1.259       .  A
O231       Cr239   1.949       .  S
O231        C232   1.257       .  A
C232        O233   1.279       .  A
C232       C3855   1.483       .  S
O233       Cr240   2.063       .  S
O234       Cr240   2.000       .  S
O234        C235   1.267       .  A
C235        O236   1.269       .  A
C235       C3516   1.494       .  S
O236       Cr241   2.007       .  S
O237       Cr241   1.986       .  S
O237        C238   1.257       .  A
C238       C3540   1.461       .  S
Cr239       O242   1.762       .  S
Cr240       O242   1.772       .  S
Cr241       O242   1.767       .  S
O243       Cr261   1.978       .  S
O243        C251   1.263       .  A
O244       Cr261   1.986       .  S
O244        C245   1.259       .  A
C245        O246   1.263       .  A
C245       C3876   1.470       .  S
O246       Cr262   2.006       .  S
O247       Cr262   2.018       .  S
O247        C248   1.268       .  A
C248        O249   1.264       .  A
C248       C3468   1.486       .  S
O249       Cr263   1.987       .  S
O250       Cr263   2.000       .  S
O250        C251   1.266       .  A
C251       C3543   1.477       .  S
O252       Cr261   1.981       .  S
O252        C260   1.259       .  A
O253       Cr261   1.966       .  S
O253        C254   1.258       .  A
C254        O255   1.271       .  A
C254       C3807   1.471       .  S
O255       Cr262   2.034       .  S
O256       Cr262   1.990       .  S
O256        C257   1.264       .  A
C257        O258   1.264       .  A
C257       C3951   1.475       .  S
O258       Cr263   1.989       .  S
O259       Cr263   2.002       .  S
O259        C260   1.263       .  A
C260       C3612   1.473       .  S
Cr261       O264   1.762       .  S
Cr262       O264   1.776       .  S
Cr263       O264   1.769       .  S
O265       Cr283   1.975       .  S
O265        C273   1.262       .  A
O266       Cr283   1.998       .  S
O266        C267   1.260       .  A
C267        O268   1.260       .  A
C267       C3444   1.469       .  S
O268       Cr284   1.996       .  S
O269       Cr284   2.031       .  S
O269        C270   1.271       .  A
C270        O271   1.259       .  A
C270       C3732   1.481       .  S
O271       Cr285   1.961       .  S
O272       Cr285   2.023       .  S
O272        C273   1.270       .  A
C273       C3399   1.486       .  S
O274       Cr283   1.988       .  S
O274        C282   1.261       .  A
O275       Cr283   1.951       .  S
O275        C276   1.256       .  A
C276        O277   1.274       .  A
C276       C3420   1.477       .  S
O277       Cr284   2.047       .  S
O278       Cr284   1.994       .  S
O278        C279   1.265       .  A
C279        O280   1.267       .  A
C279       C3348   1.487       .  S
O280       Cr285   2.002       .  S
O281       Cr285   1.985       .  S
O281        C282   1.259       .  A
C282       C3375   1.463       .  S
Cr283       O286   1.761       .  S
Cr284       O286   1.777       .  S
Cr285       O286   1.766       .  S
O287       Cr305   1.973       .  S
O287        C295   1.261       .  A
O288       Cr305   2.001       .  S
O288        C289   1.262       .  A
C289        O290   1.261       .  A
C289       C3300   1.477       .  S
O290       Cr306   2.001       .  S
O291       Cr306   2.033       .  S
O291        C292   1.272       .  A
C292        O293   1.259       .  A
C292       C3228   1.487       .  S
O293       Cr307   1.961       .  S
O294       Cr307   2.020       .  S
O294        C295   1.270       .  A
C295       C3372   1.480       .  S
O296       Cr305   1.995       .  S
O296        C304   1.262       .  A
O297       Cr305   1.959       .  S
O297        C298   1.257       .  A
C298        O299   1.275       .  A
C298       C3276   1.477       .  S
O299       Cr306   2.047       .  S
O300       Cr306   1.990       .  S
O300        C301   1.263       .  A
C301        O302   1.268       .  A
C301       C3255   1.486       .  S
O302       Cr307   2.007       .  S
O303       Cr307   1.985       .  S
O303        C304   1.258       .  A
C304       C3324   1.467       .  S
Cr305       O308   1.760       .  S
Cr306       O308   1.772       .  S
Cr307       O308   1.768       .  S
O309       Cr327   1.984       .  S
O309        C317   1.260       .  A
O310       Cr327   1.968       .  S
O310        C311   1.257       .  A
C311        O312   1.270       .  A
C311       C3180   1.471       .  S
O312       Cr328   2.030       .  S
O313       Cr328   1.986       .  S
O313        C314   1.263       .  A
C314        O315   1.268       .  A
C314       C3156   1.484       .  S
O315       Cr329   2.002       .  S
O316       Cr329   1.990       .  S
O316        C317   1.259       .  A
C317       C3327   1.467       .  S
O318       Cr327   1.976       .  S
O318        C326   1.263       .  A
O319       Cr327   1.995       .  S
O319        C320   1.261       .  A
C320        O321   1.261       .  A
C320       C3204   1.464       .  S
O321       Cr328   1.992       .  S
O322       Cr328   2.018       .  S
O322        C323   1.268       .  A
C323        O324   1.261       .  A
C323       C3828   1.479       .  S
O324       Cr329   1.971       .  S
O325       Cr329   2.023       .  S
O325        C326   1.271       .  A
C326       C3396   1.486       .  S
Cr327       O330   1.759       .  S
Cr328       O330   1.775       .  S
Cr329       O330   1.768       .  S
O331       Cr349   1.979       .  S
O331        C339   1.262       .  A
O332       Cr349   1.998       .  S
O332        C333   1.261       .  A
C333        O334   1.264       .  A
C333       C3303   1.473       .  S
O334       Cr350   2.005       .  S
O335       Cr350   2.023       .  S
O335        C336   1.268       .  A
C336        O337   1.259       .  A
C336       C3567   1.487       .  S
O337       Cr351   1.967       .  S
O338       Cr351   1.999       .  S
O338        C339   1.266       .  A
C339       C3108   1.477       .  S
O340       Cr349   1.987       .  S
O340        C348   1.260       .  A
O341       Cr349   1.965       .  S
O341        C342   1.257       .  A
C342        O343   1.270       .  A
C342       C3423   1.471       .  S
O343       Cr350   2.033       .  S
O344       Cr350   1.998       .  S
O344        C345   1.266       .  A
C345        O346   1.266       .  A
C345       C3084   1.483       .  S
O346       Cr351   1.994       .  S
O347       Cr351   1.986       .  S
O347        C348   1.260       .  A
C348       C3132   1.464       .  S
Cr349       O352   1.763       .  S
Cr350       O352   1.778       .  S
Cr351       O352   1.766       .  S
O353       Cr371   1.971       .  S
O353        C361   1.261       .  A
O354       Cr371   1.998       .  S
O354        C355   1.261       .  A
C355        O356   1.262       .  A
C355       C3447   1.472       .  S
O356       Cr372   1.999       .  S
O357       Cr372   2.022       .  S
O357        C358   1.269       .  A
C358        O359   1.259       .  A
C358       C3012   1.480       .  S
O359       Cr373   1.960       .  S
O360       Cr373   2.017       .  S
O360        C361   1.268       .  A
C361       C3135   1.477       .  S
O362       Cr371   1.995       .  S
O362        C370   1.262       .  A
O363       Cr371   1.952       .  S
O363        C364   1.256       .  A
C364        O365   1.272       .  A
C364       C3207   1.471       .  S
O365       Cr372   2.038       .  S
O366       Cr372   1.994       .  S
O366        C367   1.264       .  A
C367        O368   1.267       .  A
C367       C3039   1.480       .  S
O368       Cr373   2.001       .  S
O369       Cr373   1.985       .  S
O369        C370   1.259       .  A
C370       C3060   1.464       .  S
Cr371       O374   1.757       .  S
Cr372       O374   1.778       .  S
Cr373       O374   1.764       .  S
O375       Cr393   1.994       .  S
O375        C383   1.261       .  A
O376       Cr393   1.957       .  S
O376        C377   1.257       .  A
C377        O378   1.274       .  A
C377       C3183   1.475       .  S
O378       Cr394   2.042       .  S
O379       Cr394   1.993       .  S
O379        C380   1.266       .  A
C380        O381   1.269       .  A
C380       C2988   1.492       .  S
O381       Cr395   2.009       .  S
O382       Cr395   1.990       .  S
O382        C383   1.260       .  A
C383       C3063   1.469       .  S
O384       Cr393   1.965       .  S
O384        C392   1.260       .  A
O385       Cr393   2.005       .  S
O385        C386   1.261       .  A
C386        O387   1.262       .  A
C386       C3279   1.476       .  S
O387       Cr394   2.003       .  S
O388       Cr394   2.028       .  S
O388        C389   1.270       .  A
C389        O390   1.259       .  A
C389       C3492   1.491       .  S
O390       Cr395   1.971       .  S
O391       Cr395   2.014       .  S
O391        C392   1.269       .  A
C392       C3111   1.475       .  S
Cr393       O396   1.762       .  S
Cr394       O396   1.774       .  S
Cr395       O396   1.769       .  S
O397       Cr415   1.960       .  S
O397        C405   1.259       .  A
O398       Cr415   1.998       .  S
O398        C399   1.259       .  A
C399        O400   1.260       .  A
C399       C2940   1.470       .  S
O400       Cr416   1.999       .  S
O401       Cr416   2.032       .  S
O401        C402   1.272       .  A
C402        O403   1.262       .  A
C402       C4191   1.491       .  S
O403       Cr417   1.973       .  S
O404       Cr417   2.020       .  S
O404        C405   1.271       .  A
C405       C2964   1.477       .  S
O406       Cr415   1.993       .  S
O406        C414   1.261       .  A
O407       Cr415   1.946       .  S
O407        C408   1.256       .  A
C408        O409   1.275       .  A
C408       C2892   1.478       .  S
O409       Cr416   2.052       .  S
O410       Cr416   1.993       .  S
O410        C411   1.265       .  A
C411        O412   1.266       .  A
C411       C3159   1.484       .  S
O412       Cr417   1.992       .  S
O413       Cr417   1.999       .  S
O413        C414   1.260       .  A
C414       C2916   1.477       .  S
Cr415       O418   1.760       .  S
Cr416       O418   1.776       .  S
Cr417       O418   1.767       .  S
O419       Cr437   1.991       .  S
O419        C427   1.261       .  A
O420       Cr437   1.964       .  S
O420        C421   1.257       .  A
C421        O422   1.268       .  A
C421       C2820   1.467       .  S
O422       Cr438   2.025       .  S
O423       Cr438   2.001       .  S
O423        C424   1.265       .  A
C424        O425   1.266       .  A
C424       C3252   1.486       .  S
O425       Cr439   1.998       .  S
O426       Cr439   2.000       .  S
O426        C427   1.261       .  A
C427       C2919   1.479       .  S
O428       Cr437   1.973       .  S
O428        C436   1.263       .  A
O429       Cr437   2.004       .  S
O429        C430   1.263       .  A
C430        O431   1.264       .  A
C430       C2844   1.483       .  S
O431       Cr438   2.011       .  S
O432       Cr438   2.014       .  S
O432        C433   1.267       .  A
C433        O434   1.262       .  A
C433       C2796   1.484       .  S
O434       Cr439   1.976       .  S
O435       Cr439   2.017       .  S
O435        C436   1.270       .  A
C436       C2868   1.484       .  S
Cr437       O440   1.763       .  S
Cr438       O440   1.778       .  S
Cr439       O440   1.772       .  S
O441       Cr459   1.989       .  S
O441        C449   1.260       .  A
O442       Cr459   1.950       .  S
O442        C443   1.257       .  A
C443        O444   1.277       .  A
C443       C2772   1.482       .  S
O444       Cr460   2.055       .  S
O445       Cr460   1.993       .  S
O445        C446   1.264       .  A
C446        O447   1.265       .  A
C446       C2724   1.486       .  S
O447       Cr461   1.993       .  S
O448       Cr461   1.995       .  S
O448        C449   1.260       .  A
C449       C2871   1.469       .  S
O450       Cr459   1.972       .  S
O450        C458   1.262       .  A
O451       Cr459   1.996       .  S
O451        C452   1.258       .  A
C452        O453   1.258       .  A
C452       C2748   1.469       .  S
O453       Cr460   1.995       .  S
O454       Cr460   2.025       .  S
O454        C455   1.271       .  A
C455        O456   1.259       .  A
C455       C4284   1.474       .  S
O456       Cr461   1.962       .  S
O457       Cr461   2.011       .  S
O457        C458   1.269       .  A
C458       C2967   1.478       .  S
Cr459       O462   1.762       .  S
Cr460       O462   1.776       .  S
Cr461       O462   1.769       .  S
O463       Cr481   1.988       .  S
O463        C471   1.260       .  A
O464       Cr481   1.958       .  S
O464        C465   1.256       .  A
C465        O466   1.271       .  A
C465       C2823   1.472       .  S
O466       Cr482   2.038       .  S
O467       Cr482   1.983       .  S
O467        C468   1.264       .  A
C468        O469   1.271       .  A
C468       C3999   1.484       .  S
O469       Cr483   2.013       .  S
O470       Cr483   1.988       .  S
O470        C471   1.258       .  A
C471       C2700   1.471       .  S
O472       Cr481   1.965       .  S
O472        C480   1.260       .  A
O473       Cr481   1.999       .  S
O473        C474   1.262       .  A
C474        O475   1.263       .  A
C474       C2895   1.473       .  S
O475       Cr482   2.003       .  S
O476       Cr482   2.018       .  S
O476        C477   1.267       .  A
C477        O478   1.260       .  A
C477       C2655   1.487       .  S
O478       Cr483   1.974       .  S
O479       Cr483   2.026       .  S
O479        C480   1.273       .  A
C480       C2676   1.484       .  S
Cr481       O484   1.760       .  S
Cr482       O484   1.776       .  S
Cr483       O484   1.768       .  S
O485       Cr503   1.970       .  S
O485        C493   1.263       .  A
O486       Cr503   1.997       .  S
O486        C487   1.258       .  A
C487        O488   1.259       .  A
C487       C2775   1.477       .  S
O488       Cr504   2.005       .  S
O489       Cr504   2.026       .  S
O489        C490   1.271       .  A
C490        O491   1.259       .  A
C490       C3087   1.487       .  S
O491       Cr505   1.965       .  S
O492       Cr505   2.028       .  S
O492        C493   1.273       .  A
C493       C2628   1.485       .  S
O494       Cr503   1.987       .  S
O494        C502   1.259       .  A
O495       Cr503   1.957       .  S
O495        C496   1.259       .  A
C496        O497   1.278       .  A
C496       C2847   1.486       .  S
O497       Cr504   2.058       .  S
O498       Cr504   1.993       .  S
O498        C499   1.264       .  A
C499        O500   1.269       .  A
C499       C4071   1.494       .  S
O500       Cr505   2.010       .  S
O501       Cr505   1.994       .  S
O501        C502   1.259       .  A
C502       C2703   1.469       .  S
Cr503       O506   1.763       .  S
Cr504       O506   1.776       .  S
Cr505       O506   1.773       .  S
O507       Cr525   1.973       .  S
O507        C515   1.263       .  A
O508       Cr525   1.997       .  S
O508        C509   1.259       .  A
C509        O510   1.261       .  A
C509       C2943   1.471       .  S
O510       Cr526   1.998       .  S
O511       Cr526   2.030       .  S
O511        C512   1.271       .  A
C512        O513   1.261       .  A
C512       C2607   1.494       .  S
O513       Cr527   1.974       .  S
O514       Cr527   2.013       .  S
O514        C515   1.271       .  A
C515       C2679   1.481       .  S
O516       Cr525   1.983       .  S
O516        C524   1.259       .  A
O517       Cr525   1.953       .  S
O517        C518   1.256       .  A
C518        O519   1.276       .  A
C518       C2751   1.476       .  S
O519       Cr526   2.052       .  S
O520       Cr526   1.982       .  S
O520        C521   1.263       .  A
C521        O522   1.267       .  A
C521       C3015   1.476       .  S
O522       Cr527   1.998       .  S
O523       Cr527   2.001       .  S
O523        C524   1.261       .  A
C524       C2631   1.473       .  S
Cr525       O528   1.761       .  S
Cr526       O528   1.776       .  S
Cr527       O528   1.765       .  S
O529       Cr547   1.991       .  S
O529        C537   1.260       .  A
O530       Cr547   1.956       .  S
O530        C531   1.258       .  A
C531        O532   1.274       .  A
C531       C2556   1.476       .  S
O532       Cr548   2.042       .  S
O533       Cr548   1.994       .  S
O533        C534   1.263       .  A
C534        O535   1.265       .  A
C534       C2484   1.483       .  S
O535       Cr549   1.992       .  S
O536       Cr549   2.008       .  S
O536        C537   1.263       .  A
C537       C2532   1.482       .  S
O538       Cr547   1.977       .  S
O538        C546   1.264       .  A
O539       Cr547   1.996       .  S
O539        C540   1.259       .  A
C540        O541   1.261       .  A
C540       C2583   1.473       .  S
O541       Cr548   2.003       .  S
O542       Cr548   2.028       .  S
O542        C543   1.270       .  A
C543        O544   1.263       .  A
C543       C4383   1.494       .  S
O544       Cr549   1.978       .  S
O545       Cr549   2.007       .  S
O545        C546   1.268       .  A
C546       C2508   1.480       .  S
Cr547       O550   1.762       .  S
Cr548       O550   1.779       .  S
Cr549       O550   1.767       .  S
O551       Cr569   1.974       .  S
O551        C559   1.261       .  A
O552       Cr569   2.005       .  S
O552        C553   1.264       .  A
C553        O554   1.261       .  A
C553       C2559   1.473       .  S
O554       Cr570   1.996       .  S
O555       Cr570   2.018       .  S
O555        C556   1.268       .  A
C556        O557   1.262       .  A
C556       C2388   1.489       .  S
O557       Cr571   1.979       .  S
O558       Cr571   2.019       .  S
O558        C559   1.268       .  A
C559       C2412   1.486       .  S
O560       Cr569   1.993       .  S
O560        C568   1.263       .  A
O561       Cr569   1.964       .  S
O561        C562   1.256       .  A
C562        O563   1.270       .  A
C562       C2436   1.474       .  S
O563       Cr570   2.037       .  S
O564       Cr570   1.997       .  S
O564        C565   1.267       .  A
C565        O566   1.270       .  A
C565       C4020   1.495       .  S
O566       Cr571   2.011       .  S
O567       Cr571   1.990       .  S
O567        C568   1.262       .  A
C568       C2460   1.471       .  S
Cr569       O572   1.764       .  S
Cr570       O572   1.777       .  S
Cr571       O572   1.770       .  S
O573       Cr591   1.978       .  S
O573        C581   1.264       .  A
O574       Cr591   1.996       .  S
O574        C575   1.257       .  A
C575        O576   1.260       .  A
C575       C2364   1.473       .  S
O576       Cr592   2.005       .  S
O577       Cr592   2.026       .  S
O577        C578   1.270       .  A
C578        O579   1.263       .  A
C578       C2316   1.497       .  S
O579       Cr593   1.981       .  S
O580       Cr593   2.013       .  S
O580        C581   1.272       .  A
C581       C2340   1.481       .  S
O582       Cr591   1.987       .  S
O582        C590   1.259       .  A
O583       Cr591   1.959       .  S
O583        C584   1.259       .  A
C584        O585   1.275       .  A
C584       C2439   1.475       .  S
O585       Cr592   2.043       .  S
O586       Cr592   1.983       .  S
O586        C587   1.262       .  A
C587        O588   1.268       .  A
C587       C2292   1.484       .  S
O588       Cr593   2.007       .  S
O589       Cr593   2.014       .  S
O589        C590   1.264       .  A
C590       C2535   1.485       .  S
Cr591       O594   1.765       .  S
Cr592       O594   1.775       .  S
Cr593       O594   1.768       .  S
O595       Cr613   1.985       .  S
O595        C603   1.259       .  A
O596       Cr613   1.958       .  S
O596        C597   1.258       .  A
C597        O598   1.277       .  A
C597       C2268   1.484       .  S
O598       Cr614   2.055       .  S
O599       Cr614   2.001       .  S
O599        C600   1.267       .  A
C600        O601   1.269       .  A
C600       C4263   1.496       .  S
O601       Cr615   2.009       .  S
O602       Cr615   1.991       .  S
O602        C603   1.259       .  A
C603       C2511   1.467       .  S
O604       Cr613   1.975       .  S
O604        C612   1.262       .  A
O605       Cr613   1.994       .  S
O605        C606   1.257       .  A
C606        O607   1.262       .  A
C606       C2244   1.476       .  S
O607       Cr614   2.012       .  S
O608       Cr614   2.032       .  S
O608        C609   1.272       .  A
C609        O610   1.260       .  A
C609       C2220   1.493       .  S
O610       Cr615   1.971       .  S
O611       Cr615   2.021       .  S
O611        C612   1.272       .  A
C612       C2343   1.484       .  S
Cr613       O616   1.765       .  S
Cr614       O616   1.775       .  S
Cr615       O616   1.770       .  S
O617       Cr635   1.980       .  S
O617        C625   1.261       .  A
O618       Cr635   1.963       .  S
O618        C619   1.255       .  A
C619        O620   1.275       .  A
C619       C2271   1.479       .  S
O620       Cr636   2.052       .  S
O621       Cr636   1.983       .  S
O621        C622   1.263       .  A
C622        O623   1.269       .  A
C622       C2172   1.485       .  S
O623       Cr637   2.007       .  S
O624       Cr637   1.987       .  S
O624        C625   1.259       .  A
C625       C2196   1.463       .  S
O626       Cr635   1.970       .  S
O626        C634   1.262       .  A
O627       Cr635   2.005       .  S
O627        C628   1.262       .  A
C628        O629   1.259       .  A
C628       C2580   1.468       .  S
O629       Cr636   1.989       .  S
O630       Cr636   2.035       .  S
O630        C631   1.273       .  A
C631        O632   1.259       .  A
C631       C2151   1.491       .  S
O632       Cr637   1.969       .  S
O633       Cr637   2.022       .  S
O633        C634   1.270       .  A
C634       C2415   1.484       .  S
Cr635       O638   1.758       .  S
Cr636       O638   1.772       .  S
Cr637       O638   1.767       .  S
O639       Cr657   1.994       .  S
O639        C647   1.261       .  A
O640       Cr657   1.953       .  S
O640        C641   1.257       .  A
C641        O642   1.275       .  A
C641       C2367   1.479       .  S
O642       Cr658   2.051       .  S
O643       Cr658   2.000       .  S
O643        C644   1.265       .  A
C644        O645   1.265       .  A
C644       C3975   1.488       .  S
O645       Cr659   1.991       .  S
O646       Cr659   1.991       .  S
O646        C647   1.260       .  A
C647       C2463   1.469       .  S
O648       Cr657   1.963       .  S
O648        C656   1.261       .  A
O649       Cr657   2.003       .  S
O649        C650   1.262       .  A
C650        O651   1.263       .  A
C650       C2247   1.482       .  S
O651       Cr658   2.008       .  S
O652       Cr658   2.037       .  S
O652        C653   1.273       .  A
C653        O654   1.260       .  A
C653       C2124   1.493       .  S
O654       Cr659   1.965       .  S
O655       Cr659   2.012       .  S
O655        C656   1.267       .  A
C656       C2199   1.475       .  S
Cr657       O660   1.759       .  S
Cr658       O660   1.775       .  S
Cr659       O660   1.769       .  S
O661       Cr679   1.985       .  S
O661        C669   1.258       .  A
O662       Cr679   1.955       .  S
O662        C663   1.258       .  A
C663        O664   1.276       .  A
C663       C2100   1.475       .  S
O664       Cr680   2.046       .  S
O665       Cr680   1.989       .  S
O665        C666   1.263       .  A
C666        O667   1.267       .  A
C666       C2004   1.487       .  S
O667       Cr681   2.002       .  S
O668       Cr681   2.004       .  S
O668        C669   1.262       .  A
C669       C2031   1.473       .  S
O670       Cr679   1.971       .  S
O670        C678   1.262       .  A
O671       Cr679   1.997       .  S
O671        C672   1.257       .  A
C672        O673   1.262       .  A
C672       C2076   1.474       .  S
O673       Cr680   2.006       .  S
O674       Cr680   2.035       .  S
O674        C675   1.272       .  A
C675        O676   1.261       .  A
C675       C2319   1.497       .  S
O676       Cr681   1.973       .  S
O677       Cr681   2.013       .  S
O677        C678   1.271       .  A
C678       C2052   1.475       .  S
Cr679       O682   1.763       .  S
Cr680       O682   1.773       .  S
Cr681       O682   1.768       .  S
O683       Cr701   2.001       .  S
O683        C691   1.263       .  A
O684       Cr701   1.960       .  S
O684        C685   1.258       .  A
C685        O686   1.274       .  A
C685       C1956   1.482       .  S
O686       Cr702   2.049       .  S
O687       Cr702   1.996       .  S
O687        C688   1.265       .  A
C688        O689   1.266       .  A
C688       C2799   1.485       .  S
O689       Cr703   1.998       .  S
O690       Cr703   1.985       .  S
O690        C691   1.260       .  A
C691       C1932   1.467       .  S
O692       Cr701   1.976       .  S
O692        C700   1.262       .  A
O693       Cr701   2.005       .  S
O693        C694   1.263       .  A
C694        O695   1.261       .  A
C694       C1980   1.473       .  S
O695       Cr702   1.996       .  S
O696       Cr702   2.037       .  S
O696        C697   1.272       .  A
C697        O698   1.259       .  A
C697       C1908   1.488       .  S
O698       Cr703   1.961       .  S
O699       Cr703   2.014       .  S
O699        C700   1.267       .  A
C700       C2028   1.484       .  S
Cr701       O704   1.761       .  S
Cr702       O704   1.780       .  S
Cr703       O704   1.767       .  S
O705       Cr723   1.978       .  S
O705        C713   1.261       .  A
O706       Cr723   2.006       .  S
O706        C707   1.263       .  A
C707        O708   1.261       .  A
C707       C1887   1.473       .  S
O708       Cr724   1.996       .  S
O709       Cr724   2.028       .  S
O709        C710   1.270       .  A
C710        O711   1.260       .  A
C710       C2223   1.492       .  S
O711       Cr725   1.976       .  S
O712       Cr725   1.998       .  S
O712        C713   1.265       .  A
C713       C2055   1.474       .  S
O714       Cr723   2.000       .  S
O714        C722   1.263       .  A
O715       Cr723   1.968       .  S
O715        C716   1.258       .  A
C716        O717   1.273       .  A
C716       C1863   1.479       .  S
O717       Cr724   2.042       .  S
O718       Cr724   1.993       .  S
O718        C719   1.266       .  A
C719        O720   1.267       .  A
C719       C2727   1.485       .  S
O720       Cr725   1.998       .  S
O721       Cr725   1.988       .  S
O721        C722   1.261       .  A
C722       C1935   1.470       .  S
Cr723       O726   1.765       .  S
Cr724       O726   1.776       .  S
Cr725       O726   1.768       .  S
O727       Cr745   1.986       .  S
O727        C735   1.260       .  A
O728       Cr745   1.963       .  S
O728        C729   1.257       .  A
C729        O730   1.274       .  A
C729       C1884   1.476       .  S
O730       Cr746   2.047       .  S
O731       Cr746   2.003       .  S
O731        C732   1.268       .  A
C732        O733   1.271       .  A
C732       C1788   1.498       .  S
O733       Cr747   2.012       .  S
O734       Cr747   1.995       .  S
O734        C735   1.260       .  A
C735       C1815   1.472       .  S
O736       Cr745   1.968       .  S
O736        C744   1.261       .  A
O737       Cr745   1.997       .  S
O737        C738   1.260       .  A
C738        O739   1.264       .  A
C738       C2079   1.477       .  S
O739       Cr746   2.011       .  S
O740       Cr746   2.030       .  S
O740        C741   1.270       .  A
C741        O742   1.261       .  A
C741       C2604   1.495       .  S
O742       Cr747   1.975       .  S
O743       Cr747   2.026       .  S
O743        C744   1.272       .  A
C744       C1839   1.486       .  S
Cr745       O748   1.761       .  S
Cr746       O748   1.774       .  S
Cr747       O748   1.769       .  S
O749       Cr767   1.972       .  S
O749        C757   1.263       .  A
O750       Cr767   1.998       .  S
O750        C751   1.259       .  A
C751        O752   1.261       .  A
C751       C2103   1.471       .  S
O752       Cr768   2.000       .  S
O753       Cr768   2.031       .  S
O753        C754   1.271       .  A
C754        O755   1.258       .  A
C754       C2652   1.487       .  S
O755       Cr769   1.962       .  S
O756       Cr769   2.026       .  S
O756        C757   1.272       .  A
C757       C1836   1.486       .  S
O758       Cr767   1.983       .  S
O758        C766   1.259       .  A
O759       Cr767   1.956       .  S
O759        C760   1.256       .  A
C760        O761   1.276       .  A
C760       C1983   1.476       .  S
O761       Cr768   2.052       .  S
O762       Cr768   1.986       .  S
O762        C763   1.263       .  A
C763        O764   1.269       .  A
C763       C2391   1.480       .  S
O764       Cr769   2.008       .  S
O765       Cr769   1.983       .  S
O765        C766   1.257       .  A
C766       C1764   1.462       .  S
Cr767       O770   1.762       .  S
Cr768       O770   1.777       .  S
Cr769       O770   1.769       .  S
O771       Cr789   1.965       .  S
O771        C779   1.261       .  A
O772       Cr789   2.002       .  S
O772        C773   1.261       .  A
C773        O774   1.261       .  A
C773       C1959   1.477       .  S
O774       Cr790   2.005       .  S
O775       Cr790   2.023       .  S
O775        C776   1.269       .  A
C776        O777   1.261       .  A
C776       C2148   1.491       .  S
O777       Cr791   1.979       .  S
O778       Cr791   2.014       .  S
O778        C779   1.269       .  A
C779       C1767   1.477       .  S
O780       Cr789   1.990       .  S
O780        C788   1.261       .  A
O781       Cr789   1.965       .  S
O781        C782   1.258       .  A
C782        O783   1.274       .  A
C782       C1860   1.481       .  S
O783       Cr790   2.043       .  S
O784       Cr790   1.987       .  S
O784        C785   1.264       .  A
C785        O786   1.269       .  A
C785       C1740   1.485       .  S
O786       Cr791   2.009       .  S
O787       Cr791   1.999       .  S
O787        C788   1.262       .  A
C788       C1812   1.474       .  S
Cr789       O792   1.761       .  S
Cr790       O792   1.771       .  S
Cr791       O792   1.771       .  S
O793       Cr811   1.972       .  S
O793        C801   1.265       .  A
O794       Cr811   1.989       .  S
O794        C795   1.256       .  A
C795        O796   1.260       .  A
C795       C1668   1.473       .  S
O796       Cr812   2.008       .  S
O797       Cr812   2.023       .  S
O797        C798   1.270       .  A
C798        O799   1.262       .  A
C798       C3519   1.493       .  S
O799       Cr813   1.976       .  S
O800       Cr813   2.027       .  S
O800        C801   1.275       .  A
C801       C1692   1.486       .  S
O802       Cr811   1.978       .  S
O802        C810   1.255       .  A
O803       Cr811   1.953       .  S
O803        C804   1.258       .  A
C804        O805   1.277       .  A
C804       C1647   1.478       .  S
O805       Cr812   2.055       .  S
O806       Cr812   1.987       .  S
O806        C807   1.263       .  A
C807        O808   1.267       .  A
C807       C1623   1.478       .  S
O808       Cr813   2.000       .  S
O809       Cr813   1.996       .  S
O809        C810   1.256       .  A
C810       C1716   1.470       .  S
Cr811       O814   1.766       .  S
Cr812       O814   1.778       .  S
Cr813       O814   1.772       .  S
O815       Cr833   1.967       .  S
O815        C823   1.261       .  A
O816       Cr833   1.999       .  S
O816        C817   1.263       .  A
C817        O818   1.263       .  A
C817       C1575   1.470       .  S
O818       Cr834   1.997       .  S
O819       Cr834   2.024       .  S
O819        C820   1.269       .  A
C820        O821   1.260       .  A
C820       C1524   1.487       .  S
O821       Cr835   1.971       .  S
O822       Cr835   2.017       .  S
O822        C823   1.269       .  A
C823       C1719   1.482       .  S
O824       Cr833   1.986       .  S
O824        C832   1.261       .  A
O825       Cr833   1.964       .  S
O825        C826   1.256       .  A
C826        O827   1.271       .  A
C826       C1551   1.473       .  S
O827       Cr834   2.037       .  S
O828       Cr834   1.987       .  S
O828        C829   1.264       .  A
C829        O830   1.268       .  A
C829       C2175   1.484       .  S
O830       Cr835   2.001       .  S
O831       Cr835   1.989       .  S
O831        C832   1.259       .  A
C832       C1599   1.468       .  S
Cr833       O836   1.757       .  S
Cr834       O836   1.773       .  S
Cr835       O836   1.767       .  S
O837       Cr855   1.993       .  S
O837        C845   1.262       .  A
O838       Cr855   1.959       .  S
O838        C839   1.257       .  A
C839        O840   1.278       .  A
C839       C1503   1.486       .  S
O840       Cr856   2.062       .  S
O841       Cr856   1.990       .  S
O841        C842   1.265       .  A
C842        O843   1.270       .  A
C842       C2127   1.486       .  S
O843       Cr857   2.012       .  S
O844       Cr857   1.980       .  S
O844        C845   1.257       .  A
C845       C1596   1.465       .  S
O846       Cr855   1.969       .  S
O846        C854   1.260       .  A
O847       Cr855   1.996       .  S
O847        C848   1.261       .  A
C848        O849   1.262       .  A
C848       C1476   1.473       .  S
O849       Cr856   2.003       .  S
O850       Cr856   2.041       .  S
O850        C851   1.272       .  A
C851        O852   1.259       .  A
C851       C3471   1.488       .  S
O852       Cr857   1.967       .  S
O853       Cr857   2.031       .  S
O853        C854   1.272       .  A
C854       C1695   1.488       .  S
Cr855       O858   1.761       .  S
Cr856       O858   1.775       .  S
Cr857       O858   1.768       .  S
O859       Cr877   1.997       .  S
O859        C867   1.263       .  A
O860       Cr877   1.951       .  S
O860        C861   1.256       .  A
C861        O862   1.276       .  A
C861       C1671   1.480       .  S
O862       Cr878   2.054       .  S
O863       Cr878   1.989       .  S
O863        C864   1.264       .  A
C864        O865   1.268       .  A
C864       C2295   1.486       .  S
O865       Cr879   2.007       .  S
O866       Cr879   1.984       .  S
O866        C867   1.259       .  A
C867       C1455   1.465       .  S
O868       Cr877   1.970       .  S
O868        C876   1.260       .  A
O869       Cr877   2.002       .  S
O869        C870   1.261       .  A
C870        O871   1.260       .  A
C870       C1479   1.469       .  S
O871       Cr878   1.994       .  S
O872       Cr878   2.043       .  S
O872        C873   1.273       .  A
C873        O874   1.258       .  A
C873       C1404   1.491       .  S
O874       Cr879   1.955       .  S
O875       Cr879   2.017       .  S
O875        C876   1.269       .  A
C876       C1431   1.481       .  S
Cr877       O880   1.760       .  S
Cr878       O880   1.776       .  S
Cr879       O880   1.764       .  S
O881       Cr899   1.969       .  S
O881        C889   1.260       .  A
O882       Cr899   2.005       .  S
O882        C883   1.262       .  A
C883        O884   1.263       .  A
C883       C1500   1.478       .  S
O884       Cr900   2.006       .  S
O885       Cr900   2.023       .  S
O885        C886   1.267       .  A
C886        O887   1.260       .  A
C886       C1356   1.486       .  S
O887       Cr901   1.978       .  S
O888       Cr901   2.017       .  S
O888        C889   1.271       .  A
C889       C1428   1.481       .  S
O890       Cr899   1.997       .  S
O890        C898   1.261       .  A
O891       Cr899   1.962       .  S
O891        C892   1.257       .  A
C892        O893   1.273       .  A
C892       C1548   1.476       .  S
O893       Cr900   2.039       .  S
O894       Cr900   1.985       .  S
O894        C895   1.264       .  A
C895        O896   1.271       .  A
C895       C3711   1.485       .  S
O896       Cr901   2.013       .  S
O897       Cr901   1.995       .  S
O897        C898   1.261       .  A
C898       C1383   1.476       .  S
Cr899       O902   1.763       .  S
Cr900       O902   1.778       .  S
Cr901       O902   1.769       .  S
O903       Cr921   2.002       .  S
O903        C911   1.263       .  A
O904       Cr921   1.957       .  S
O904        C905   1.258       .  A
C905        O906   1.274       .  A
C905       C1572   1.478       .  S
O906       Cr922   2.041       .  S
O907       Cr922   1.998       .  S
O907        C908   1.265       .  A
C908        O909   1.267       .  A
C908       C3639   1.494       .  S
O909       Cr923   2.003       .  S
O910       Cr923   1.994       .  S
O910        C911   1.261       .  A
C911       C1380   1.473       .  S
O912       Cr921   1.973       .  S
O912        C920   1.261       .  A
O913       Cr921   2.004       .  S
O913        C914   1.261       .  A
C914        O915   1.259       .  A
C914       C1644   1.474       .  S
O915       Cr922   1.998       .  S
O916       Cr922   2.028       .  S
O916        C917   1.270       .  A
C917        O918   1.261       .  A
C917       C2487   1.487       .  S
O918       Cr923   1.965       .  S
O919       Cr923   2.019       .  S
O919        C920   1.269       .  A
C920       C1452   1.479       .  S
Cr921       O924   1.763       .  S
Cr922       O924   1.780       .  S
Cr923       O924   1.768       .  S
O925       Cr943   1.974       .  S
O925        C933   1.260       .  A
O926       Cr943   2.002       .  S
O926        C927   1.260       .  A
C927        O928   1.260       .  A
C927       C1308   1.476       .  S
O928       Cr944   2.001       .  S
O929       Cr944   2.036       .  S
O929        C930   1.273       .  A
C930        O931   1.261       .  A
C930       C3036   1.491       .  S
O931       Cr945   1.962       .  S
O932       Cr945   2.021       .  S
O932        C933   1.268       .  A
C933       C1332   1.480       .  S
O934       Cr943   2.004       .  S
O934        C942   1.264       .  A
O935       Cr943   1.950       .  S
O935        C936   1.258       .  A
C936        O937   1.275       .  A
C936       C1260   1.481       .  S
O937       Cr944   2.049       .  S
O938       Cr944   2.005       .  S
O938        C939   1.266       .  A
C939        O940   1.267       .  A
C939       C1791   1.498       .  S
O940       Cr945   2.004       .  S
O941       Cr945   1.991       .  S
O941        C942   1.261       .  A
C942       C1287   1.473       .  S
Cr943       O946   1.764       .  S
Cr944       O946   1.779       .  S
Cr945       O946   1.770       .  S
O947       Cr965   1.968       .  S
O947        C955   1.261       .  A
O948       Cr965   2.003       .  S
O948        C949   1.262       .  A
C949        O950   1.262       .  A
C949       C1311   1.475       .  S
O950       Cr966   2.003       .  S
O951       Cr966   2.017       .  S
O951        C952   1.267       .  A
C952        O953   1.260       .  A
C952       C1407   1.487       .  S
O953       Cr967   1.973       .  S
O954       Cr967   2.017       .  S
O954        C955   1.271       .  A
C955       C1239   1.480       .  S
O956       Cr965   1.988       .  S
O956        C964   1.260       .  A
O957       Cr965   1.959       .  S
O957        C958   1.256       .  A
C958        O959   1.271       .  A
C958       C1212   1.471       .  S
O959       Cr966   2.035       .  S
O960       Cr966   1.989       .  S
O960        C961   1.265       .  A
C961        O962   1.270       .  A
C961       C2007   1.488       .  S
O962       Cr967   2.009       .  S
O963       Cr967   1.989       .  S
O963        C964   1.259       .  A
C964       C1188   1.467       .  S
Cr965       O968   1.762       .  S
Cr966       O968   1.773       .  S
Cr967       O968   1.766       .  S
O969       Cr987   1.990       .  S
O969        C977   1.260       .  A
O970       Cr987   1.960       .  S
O970        C971   1.256       .  A
C971        O972   1.271       .  A
C971       C1167   1.473       .  S
O972       Cr988   2.037       .  S
O973       Cr988   1.975       .  S
O973        C974   1.263       .  A
C974        O975   1.273       .  A
C974       C3351   1.486       .  S
O975       Cr989   2.020       .  S
O976       Cr989   1.984       .  S
O976        C977   1.258       .  A
C977       C1143   1.464       .  S
O978       Cr987   1.966       .  S
O978        C986   1.260       .  A
O979       Cr987   1.999       .  S
O979        C980   1.263       .  A
C980        O981   1.263       .  A
C980       C1263   1.471       .  S
O981       Cr988   1.999       .  S
O982       Cr988   2.023       .  S
O982        C983   1.267       .  A
C983        O984   1.258       .  A
C983       C1359   1.484       .  S
O984       Cr989   1.972       .  S
O985       Cr989   2.019       .  S
O985        C986   1.272       .  A
C986       C1236   1.481       .  S
Cr987       O990   1.759       .  S
Cr988       O990   1.773       .  S
Cr989       O990   1.764       .  S
O991      Cr1009   1.975       .  S
O991        C999   1.260       .  A
O992      Cr1009   1.998       .  S
O992        C993   1.260       .  A
C993        O994   1.262       .  A
C993       C1116   1.469       .  S
O994      Cr1010   1.998       .  S
O995      Cr1010   2.029       .  S
O995        C996   1.270       .  A
C996        O997   1.259       .  A
C996       C1911   1.486       .  S
O997      Cr1011   1.965       .  S
O998      Cr1011   2.008       .  S
O998        C999   1.267       .  A
C999       C1191   1.476       .  S
O1000     Cr1009   1.995       .  S
O1000      C1008   1.262       .  A
O1001     Cr1009   1.958       .  S
O1001      C1002   1.257       .  A
C1002      O1003   1.274       .  A
C1002      C1095   1.475       .  S
O1003     Cr1010   2.042       .  S
O1004     Cr1010   1.995       .  S
O1004      C1005   1.266       .  A
C1005      O1006   1.266       .  A
C1005      C3231   1.482       .  S
O1006     Cr1011   1.998       .  S
O1007     Cr1011   1.983       .  S
O1007      C1008   1.258       .  A
C1008      C1140   1.462       .  S
Cr1009     O1012   1.762       .  S
Cr1010     O1012   1.775       .  S
Cr1011     O1012   1.764       .  S
O1013     Cr1031   1.993       .  S
O1013      C1021   1.262       .  A
O1014     Cr1031   1.965       .  S
O1014      C1015   1.256       .  A
C1015      O1016   1.269       .  A
C1015      C1164   1.467       .  S
O1016     Cr1032   2.029       .  S
O1017     Cr1032   1.983       .  S
O1017      C1018   1.264       .  A
C1018      O1019   1.272       .  A
C1018      C1743   1.486       .  S
O1019     Cr1033   2.016       .  S
O1020     Cr1033   1.992       .  S
O1020      C1021   1.261       .  A
C1021      C1284   1.474       .  S
O1022     Cr1031   1.968       .  S
O1022      C1030   1.259       .  A
O1023     Cr1031   1.998       .  S
O1023      C1024   1.262       .  A
C1024      O1025   1.263       .  A
C1024      C1092   1.468       .  S
O1025     Cr1032   1.999       .  S
O1026     Cr1032   2.019       .  S
O1026      C1027   1.266       .  A
C1027      O1028   1.259       .  A
C1027      C1527   1.487       .  S
O1028     Cr1033   1.975       .  S
O1029     Cr1033   2.013       .  S
O1029      C1030   1.270       .  A
C1030      C1071   1.478       .  S
Cr1031     O1034   1.760       .  S
Cr1032     O1034   1.773       .  S
Cr1033     O1034   1.766       .  S
O1035     Cr1053   1.977       .  S
O1035      C1043   1.261       .  A
O1036     Cr1053   1.997       .  S
O1036      C1037   1.261       .  A
C1037      O1038   1.264       .  A
C1037      C1119   1.473       .  S
O1038     Cr1054   2.004       .  S
O1039     Cr1054   2.017       .  S
O1039      C1040   1.267       .  A
C1040      O1041   1.259       .  A
C1040      C1620   1.488       .  S
O1041     Cr1055   1.978       .  S
O1042     Cr1055   2.006       .  S
O1042      C1043   1.269       .  A
C1043      C1068   1.479       .  S
O1044     Cr1053   1.990       .  S
O1044      C1052   1.261       .  A
O1045     Cr1053   1.963       .  S
O1045      C1046   1.257       .  A
C1046      O1047   1.270       .  A
C1046      C1215   1.471       .  S
O1047     Cr1054   2.034       .  S
O1048     Cr1054   1.993       .  S
O1048      C1049   1.267       .  A
C1049      O1050   1.270       .  A
C1049      C2991   1.491       .  S
O1050     Cr1055   2.011       .  S
O1051     Cr1055   1.988       .  S
O1051      C1052   1.260       .  A
C1052      C1335   1.468       .  S
Cr1053     O1056   1.763       .  S
Cr1054     O1056   1.773       .  S
Cr1055     O1056   1.765       .  S
C1057      C1058   1.401       .  A
C1057      C1062   1.405       .  A
C1057      H1073   1.084       .  S
C1058      C1059   1.405       .  A
C1058      H1074   1.084       .  S
C1059      C1069   1.406       .  A
C1059      C1060   1.412       .  A
C1060      C1066   1.410       .  A
C1060      C1061   1.410       .  A
C1061      C1063   1.412       .  A
C1061      C1062   1.411       .  A
C1062      C1070   1.405       .  A
C1063      C1072   1.398       .  A
C1063      C1064   1.401       .  A
C1064      C1065   1.395       .  A
C1064      H1075   1.084       .  S
C1065      C1066   1.402       .  A
C1065      H1076   1.084       .  S
C1066      C1067   1.396       .  A
C1067      C1068   1.405       .  A
C1067      H1077   1.084       .  S
C1068      C1069   1.409       .  A
C1069      H1078   1.084       .  S
C1070      C1071   1.410       .  A
C1070      H1079   1.084       .  S
C1071      C1072   1.404       .  A
C1072      H1080   1.084       .  S
C1081      C1082   1.401       .  A
C1081      C1086   1.405       .  A
C1081      H1097   1.083       .  S
C1082      C1083   1.404       .  A
C1082      H1098   1.084       .  S
C1083      C1093   1.407       .  A
C1083      C1084   1.413       .  A
C1084      C1090   1.412       .  A
C1084      C1085   1.413       .  A
C1085      C1087   1.412       .  A
C1085      C1086   1.413       .  A
C1086      C1094   1.408       .  A
C1087      C1096   1.400       .  A
C1087      C1088   1.403       .  A
C1088      C1089   1.397       .  A
C1088      H1099   1.084       .  S
C1089      C1090   1.403       .  A
C1089      H1100   1.084       .  S
C1090      C1091   1.400       .  A
C1091      C1092   1.403       .  A
C1091      H1101   1.085       .  S
C1092      C1093   1.405       .  A
C1093      H1102   1.085       .  S
C1094      C1095   1.406       .  A
C1094      H1103   1.084       .  S
C1095      C1096   1.405       .  A
C1096      H1104   1.085       .  S
C1105      C1106   1.402       .  A
C1105      C1110   1.405       .  A
C1105      H1121   1.083       .  S
C1106      C1107   1.404       .  A
C1106      H1122   1.084       .  S
C1107      C1117   1.408       .  A
C1107      C1108   1.413       .  A
C1108      C1114   1.412       .  A
C1108      C1109   1.414       .  A
C1109      C1111   1.412       .  A
C1109      C1110   1.413       .  A
C1110      C1118   1.408       .  A
C1111      C1120   1.402       .  A
C1111      C1112   1.403       .  A
C1112      C1113   1.398       .  A
C1112      H1123   1.084       .  S
C1113      C1114   1.403       .  A
C1113      H1124   1.083       .  S
C1114      C1115   1.402       .  A
C1115      C1116   1.402       .  A
C1115      H1125   1.084       .  S
C1116      C1117   1.405       .  A
C1117      H1126   1.085       .  S
C1118      C1119   1.406       .  A
C1118      H1127   1.084       .  S
C1119      C1120   1.404       .  A
C1120      H1128   1.085       .  S
C1129      C1130   1.397       .  A
C1129      C1134   1.403       .  A
C1129      H1145   1.083       .  S
C1130      C1131   1.403       .  A
C1130      H1146   1.084       .  S
C1131      C1141   1.399       .  A
C1131      C1132   1.412       .  A
C1132      C1138   1.413       .  A
C1132      C1133   1.411       .  A
C1133      C1135   1.413       .  A
C1133      C1134   1.412       .  A
C1134      C1142   1.400       .  A
C1135      C1144   1.404       .  A
C1135      C1136   1.404       .  A
C1136      C1137   1.400       .  A
C1136      H1147   1.084       .  S
C1137      C1138   1.404       .  A
C1137      H1148   1.083       .  S
C1138      C1139   1.404       .  A
C1139      C1140   1.403       .  A
C1139      H1149   1.084       .  S
C1140      C1141   1.401       .  A
C1141      H1150   1.085       .  S
C1142      C1143   1.402       .  A
C1142      H1151   1.085       .  S
C1143      C1144   1.403       .  A
C1144      H1152   1.085       .  S
C1153      C1154   1.398       .  A
C1153      C1158   1.404       .  A
C1153      H1169   1.084       .  S
C1154      C1155   1.403       .  A
C1154      H1170   1.084       .  S
C1155      C1165   1.402       .  A
C1155      C1156   1.413       .  A
C1156      C1162   1.412       .  A
C1156      C1157   1.411       .  A
C1157      C1159   1.414       .  A
C1157      C1158   1.411       .  A
C1158      C1166   1.400       .  A
C1159      C1168   1.404       .  A
C1159      C1160   1.403       .  A
C1160      C1161   1.399       .  A
C1160      H1171   1.084       .  S
C1161      C1162   1.403       .  A
C1161      H1172   1.083       .  S
C1162      C1163   1.402       .  A
C1163      C1164   1.404       .  A
C1163      H1173   1.084       .  S
C1164      C1165   1.404       .  A
C1165      H1174   1.085       .  S
C1166      C1167   1.406       .  A
C1166      H1175   1.085       .  S
C1167      C1168   1.404       .  A
C1168      H1176   1.085       .  S
C1177      C1178   1.399       .  A
C1177      C1182   1.403       .  A
C1177      H1193   1.083       .  S
C1178      C1179   1.404       .  A
C1178      H1194   1.084       .  S
C1179      C1189   1.401       .  A
C1179      C1180   1.411       .  A
C1180      C1186   1.414       .  A
C1180      C1181   1.411       .  A
C1181      C1183   1.411       .  A
C1181      C1182   1.413       .  A
C1182      C1190   1.403       .  A
C1183      C1192   1.400       .  A
C1183      C1184   1.403       .  A
C1184      C1185   1.398       .  A
C1184      H1195   1.084       .  S
C1185      C1186   1.403       .  A
C1185      H1196   1.083       .  S
C1186      C1187   1.404       .  A
C1187      C1188   1.402       .  A
C1187      H1197   1.084       .  S
C1188      C1189   1.404       .  A
C1189      H1198   1.085       .  S
C1190      C1191   1.407       .  A
C1190      H1199   1.084       .  S
C1191      C1192   1.406       .  A
C1192      H1200   1.084       .  S
C1201      C1202   1.399       .  A
C1201      C1206   1.404       .  A
C1201      H1217   1.084       .  S
C1202      C1203   1.404       .  A
C1202      H1218   1.084       .  S
C1203      C1213   1.401       .  A
C1203      C1204   1.411       .  A
C1204      C1210   1.414       .  A
C1204      C1205   1.412       .  A
C1205      C1207   1.411       .  A
C1205      C1206   1.414       .  A
C1206      C1214   1.405       .  A
C1207      C1216   1.400       .  A
C1207      C1208   1.403       .  A
C1208      C1209   1.398       .  A
C1208      H1219   1.084       .  S
C1209      C1210   1.403       .  A
C1209      H1220   1.084       .  S
C1210      C1211   1.404       .  A
C1211      C1212   1.403       .  A
C1211      H1221   1.085       .  S
C1212      C1213   1.406       .  A
C1213      H1222   1.085       .  S
C1214      C1215   1.405       .  A
C1214      H1223   1.085       .  S
C1215      C1216   1.404       .  A
C1216      H1224   1.085       .  S
C1225      C1226   1.398       .  A
C1225      C1230   1.403       .  A
C1225      H1241   1.084       .  S
C1226      C1227   1.403       .  A
C1226      H1242   1.083       .  S
C1227      C1237   1.402       .  A
C1227      C1228   1.411       .  A
C1228      C1234   1.411       .  A
C1228      C1229   1.411       .  A
C1229      C1231   1.411       .  A
C1229      C1230   1.412       .  A
C1230      C1238   1.403       .  A
C1231      C1240   1.401       .  A
C1231      C1232   1.403       .  A
C1232      C1233   1.398       .  A
C1232      H1243   1.084       .  S
C1233      C1234   1.404       .  A
C1233      H1244   1.084       .  S
C1234      C1235   1.402       .  A
C1235      C1236   1.409       .  A
C1235      H1245   1.084       .  S
C1236      C1237   1.406       .  A
C1237      H1246   1.084       .  S
C1238      C1239   1.407       .  A
C1238      H1247   1.084       .  S
C1239      C1240   1.408       .  A
C1240      H1248   1.084       .  S
C1249      C1250   1.404       .  A
C1249      C1254   1.405       .  A
C1249      H1265   1.083       .  S
C1250      C1251   1.405       .  A
C1250      H1266   1.083       .  S
C1251      C1261   1.413       .  A
C1251      C1252   1.414       .  A
C1252      C1258   1.410       .  A
C1252      C1253   1.414       .  A
C1253      C1255   1.412       .  A
C1253      C1254   1.412       .  A
C1254      C1262   1.410       .  A
C1255      C1264   1.399       .  A
C1255      C1256   1.402       .  A
C1256      C1257   1.395       .  A
C1256      H1267   1.084       .  S
C1257      C1258   1.402       .  A
C1257      H1268   1.083       .  S
C1258      C1259   1.397       .  A
C1259      C1260   1.405       .  A
C1259      H1269   1.085       .  S
C1260      C1261   1.408       .  A
C1261      H1270   1.084       .  S
C1262      C1263   1.407       .  A
C1262      H1271   1.084       .  S
C1263      C1264   1.403       .  A
C1264      H1272   1.085       .  S
C1273      C1274   1.397       .  A
C1273      C1278   1.402       .  A
C1273      H1289   1.083       .  S
C1274      C1275   1.402       .  A
C1274      H1290   1.083       .  S
C1275      C1285   1.401       .  A
C1275      C1276   1.412       .  A
C1276      C1282   1.413       .  A
C1276      C1277   1.414       .  A
C1277      C1279   1.413       .  A
C1277      C1278   1.412       .  A
C1278      C1286   1.400       .  A
C1279      C1288   1.410       .  A
C1279      C1280   1.405       .  A
C1280      C1281   1.403       .  A
C1280      H1291   1.083       .  S
C1281      C1282   1.405       .  A
C1281      H1292   1.083       .  S
C1282      C1283   1.409       .  A
C1283      C1284   1.406       .  A
C1283      H1293   1.084       .  S
C1284      C1285   1.404       .  A
C1285      H1294   1.085       .  S
C1286      C1287   1.402       .  A
C1286      H1295   1.085       .  S
C1287      C1288   1.406       .  A
C1288      H1296   1.084       .  S
C1297      C1298   1.400       .  A
C1297      C1302   1.404       .  A
C1297      H1313   1.083       .  S
C1298      C1299   1.404       .  A
C1298      H1314   1.084       .  S
C1299      C1309   1.406       .  A
C1299      C1300   1.413       .  A
C1300      C1306   1.412       .  A
C1300      C1301   1.416       .  A
C1301      C1303   1.413       .  A
C1301      C1302   1.412       .  A
C1302      C1310   1.405       .  A
C1303      C1312   1.408       .  A
C1303      C1304   1.405       .  A
C1304      C1305   1.402       .  A
C1304      H1315   1.084       .  S
C1305      C1306   1.405       .  A
C1305      H1316   1.083       .  S
C1306      C1307   1.408       .  A
C1307      C1308   1.406       .  A
C1307      H1317   1.084       .  S
C1308      C1309   1.404       .  A
C1309      H1318   1.085       .  S
C1310      C1311   1.404       .  A
C1310      H1319   1.085       .  S
C1311      C1312   1.406       .  A
C1312      H1320   1.085       .  S
C1321      C1322   1.400       .  A
C1321      C1326   1.404       .  A
C1321      H1337   1.084       .  S
C1322      C1323   1.404       .  A
C1322      H1338   1.083       .  S
C1323      C1333   1.405       .  A
C1323      C1324   1.412       .  A
C1324      C1330   1.412       .  A
C1324      C1325   1.412       .  A
C1325      C1327   1.412       .  A
C1325      C1326   1.413       .  A
C1326      C1334   1.406       .  A
C1327      C1336   1.401       .  A
C1327      C1328   1.403       .  A
C1328      C1329   1.398       .  A
C1328      H1339   1.083       .  S
C1329      C1330   1.403       .  A
C1329      H1340   1.084       .  S
C1330      C1331   1.401       .  A
C1331      C1332   1.406       .  A
C1331      H1341   1.085       .  S
C1332      C1333   1.408       .  A
C1333      H1342   1.084       .  S
C1334      C1335   1.404       .  A
C1334      H1343   1.085       .  S
C1335      C1336   1.404       .  A
C1336      H1344   1.085       .  S
C1345      C1346   1.403       .  A
C1345      C1350   1.405       .  A
C1345      H1361   1.083       .  S
C1346      C1347   1.405   1_565  A
C1346      H1362   1.084   1_565  S
C1347      C1357   1.411       .  A
C1347      C1348   1.412   1_545  A
C1348      C1354   1.411   1_565  A
C1348      C1349   1.415       .  A
C1349      C1351   1.411       .  A
C1349      C1350   1.412       .  A
C1350      C1358   1.409       .  A
C1351      C1360   1.402       .  A
C1351      C1352   1.403       .  A
C1352      C1353   1.398       .  A
C1352      H1363   1.084       .  S
C1353      C1354   1.403   1_565  A
C1353      H1364   1.083   1_565  S
C1354      C1355   1.402       .  A
C1355      C1356   1.407       .  A
C1355      H1365   1.084       .  S
C1356      C1357   1.410       .  A
C1357      H1366   1.084       .  S
C1358      C1359   1.409       .  A
C1358      H1367   1.084       .  S
C1359      C1360   1.406       .  A
C1360      H1368   1.085       .  S
C1369      C1370   1.403       .  A
C1369      C1374   1.405       .  A
C1369      H1385   1.083       .  S
C1370      C1371   1.405       .  A
C1370      H1386   1.083       .  S
C1371      C1381   1.410       .  A
C1371      C1372   1.413       .  A
C1372      C1378   1.412       .  A
C1372      C1373   1.415       .  A
C1373      C1375   1.412       .  A
C1373      C1374   1.413       .  A
C1374      C1382   1.411       .  A
C1375      C1384   1.402       .  A
C1375      C1376   1.403       .  A
C1376      C1377   1.398       .  A
C1376      H1387   1.084       .  S
C1377      C1378   1.403       .  A
C1377      H1388   1.084       .  S
C1378      C1379   1.402       .  A
C1379      C1380   1.403       .  A
C1379      H1389   1.085       .  S
C1380      C1381   1.406       .  A
C1381      H1390   1.084       .  S
C1382      C1383   1.407       .  A
C1382      H1391   1.084       .  S
C1383      C1384   1.404       .  A
C1384      H1392   1.085       .  S
C1393      C1394   1.404       .  A
C1393      C1398   1.406       .  A
C1393      H1409   1.083       .  S
C1394      C1395   1.405   1_565  A
C1394      H1410   1.083   1_565  S
C1395      C1405   1.414       .  A
C1395      C1396   1.414   1_545  A
C1396      C1402   1.408   1_565  A
C1396      C1397   1.414       .  A
C1397      C1399   1.412       .  A
C1397      C1398   1.410       .  A
C1398      C1406   1.409       .  A
C1399      C1408   1.400       .  A
C1399      C1400   1.402       .  A
C1400      C1401   1.396   1_565  A
C1400      H1411   1.084       .  S
C1401      C1402   1.403       .  A
C1401      H1412   1.084       .  S
C1402      C1403   1.397       .  A
C1403      C1404   1.410       .  A
C1403      H1413   1.084       .  S
C1404      C1405   1.410       .  A
C1405      H1414   1.084       .  S
C1406      C1407   1.411       .  A
C1406      H1415   1.084       .  S
C1407      C1408   1.407       .  A
C1408      H1416   1.084       .  S
C1417      C1418   1.399       .  A
C1417      C1422   1.404       .  A
C1417      H1433   1.084       .  S
C1418      C1419   1.404       .  A
C1418      H1434   1.084       .  S
C1419      C1429   1.402       .  A
C1419      C1420   1.411       .  A
C1420      C1426   1.411       .  A
C1420      C1421   1.411       .  A
C1421      C1423   1.411       .  A
C1421      C1422   1.411       .  A
C1422      C1430   1.402       .  A
C1423      C1432   1.402       .  A
C1423      C1424   1.403       .  A
C1424      C1425   1.398       .  A
C1424      H1435   1.083       .  S
C1425      C1426   1.403       .  A
C1425      H1436   1.084       .  S
C1426      C1427   1.402       .  A
C1427      C1428   1.407       .  A
C1427      H1437   1.084       .  S
C1428      C1429   1.409       .  A
C1429      H1438   1.084       .  S
C1430      C1431   1.408       .  A
C1430      H1439   1.084       .  S
C1431      C1432   1.407       .  A
C1432      H1440   1.084       .  S
C1441      C1442   1.400       .  A
C1441      C1446   1.404       .  A
C1441      H1457   1.084       .  S
C1442      C1443   1.404       .  A
C1442      H1458   1.083       .  S
C1443      C1453   1.405       .  A
C1443      C1444   1.412       .  A
C1444      C1450   1.412       .  A
C1444      C1445   1.412       .  A
C1445      C1447   1.412       .  A
C1445      C1446   1.413       .  A
C1446      C1454   1.406       .  A
C1447      C1456   1.400       .  A
C1447      C1448   1.403       .  A
C1448      C1449   1.397       .  A
C1448      H1459   1.084       .  S
C1449      C1450   1.403       .  A
C1449      H1460   1.084       .  S
C1450      C1451   1.401       .  A
C1451      C1452   1.406       .  A
C1451      H1461   1.085       .  S
C1452      C1453   1.408       .  A
C1453      H1462   1.084       .  S
C1454      C1455   1.404       .  A
C1454      H1463   1.084       .  S
C1455      C1456   1.402       .  A
C1456      H1464   1.085       .  S
C1465      C1466   1.396       .  A
C1465      C1470   1.402       .  A
C1465      H1481   1.084       .  S
C1466      C1467   1.403       .  A
C1466      H1482   1.084       .  S
C1467      C1477   1.400       .  A
C1467      C1468   1.412       .  A
C1468      C1474   1.413       .  A
C1468      C1469   1.414       .  A
C1469      C1471   1.413       .  A
C1469      C1470   1.412       .  A
C1470      C1478   1.400       .  A
C1471      C1480   1.409       .  A
C1471      C1472   1.405       .  A
C1472      C1473   1.403       .  A
C1472      H1483   1.084       .  S
C1473      C1474   1.405       .  A
C1473      H1484   1.083       .  S
C1474      C1475   1.410       .  A
C1475      C1476   1.407       .  A
C1475      H1485   1.084       .  S
C1476      C1477   1.403       .  A
C1477      H1486   1.085       .  S
C1478      C1479   1.402       .  A
C1478      H1487   1.085       .  S
C1479      C1480   1.406       .  A
C1480      H1488   1.084       .  S
C1489      C1490   1.400       .  A
C1489      C1494   1.404       .  A
C1489      H1505   1.084       .  S
C1490      C1491   1.403       .  A
C1490      H1506   1.083       .  S
C1491      C1501   1.406       .  A
C1491      C1492   1.413       .  A
C1492      C1498   1.412       .  A
C1492      C1493   1.418       .  A
C1493      C1495   1.414       .  A
C1493      C1494   1.411       .  A
C1494      C1502   1.404       .  A
C1495      C1504   1.414       .  A
C1495      C1496   1.406       .  A
C1496      C1497   1.403       .  A
C1496      H1507   1.083       .  S
C1497      C1498   1.405       .  A
C1497      H1508   1.084       .  S
C1498      C1499   1.410       .  A
C1499      C1500   1.407       .  A
C1499      H1509   1.085       .  S
C1500      C1501   1.405       .  A
C1501      H1510   1.085       .  S
C1502      C1503   1.408       .  A
C1502      H1511   1.085       .  S
C1503      C1504   1.409       .  A
C1504      H1512   1.084       .  S
C1513      C1514   1.398       .  A
C1513      C1518   1.403       .  A
C1513      H1529   1.084       .  S
C1514      C1515   1.403       .  A
C1514      H1530   1.084       .  S
C1515      C1525   1.402       .  A
C1515      C1516   1.411       .  A
C1516      C1522   1.412       .  A
C1516      C1517   1.414       .  A
C1517      C1519   1.412       .  A
C1517      C1518   1.411       .  A
C1518      C1526   1.402       .  A
C1519      C1528   1.408       .  A
C1519      C1520   1.405       .  A
C1520      C1521   1.402       .  A
C1520      H1531   1.083       .  S
C1521      C1522   1.405       .  A
C1521      H1532   1.083       .  S
C1522      C1523   1.408       .  A
C1523      C1524   1.409       .  A
C1523      H1533   1.084       .  S
C1524      C1525   1.408       .  A
C1525      H1534   1.084       .  S
C1526      C1527   1.408       .  A
C1526      H1535   1.084       .  S
C1527      C1528   1.410       .  A
C1528      H1536   1.084       .  S
C1537      C1538   1.400       .  A
C1537      C1542   1.404       .  A
C1537      H1553   1.083       .  S
C1538      C1539   1.404       .  A
C1538      H1554   1.084       .  S
C1539      C1549   1.403       .  A
C1539      C1540   1.411       .  A
C1540      C1546   1.413       .  A
C1540      C1541   1.413       .  A
C1541      C1543   1.412       .  A
C1541      C1542   1.413       .  A
C1542      C1550   1.405       .  A
C1543      C1552   1.403       .  A
C1543      C1544   1.403       .  A
C1544      C1545   1.399       .  A
C1544      H1555   1.084       .  S
C1545      C1546   1.403       .  A
C1545      H1556   1.084       .  S
C1546      C1547   1.405       .  A
C1547      C1548   1.404       .  A
C1547      H1557   1.085       .  S
C1548      C1549   1.408       .  A
C1549      H1558   1.085       .  S
C1550      C1551   1.405       .  A
C1550      H1559   1.084       .  S
C1551      C1552   1.405       .  A
C1552      H1560   1.085       .  S
C1561      C1562   1.397       .  A
C1561      C1566   1.403       .  A
C1561      H1577   1.084       .  S
C1562      C1563   1.403       .  A
C1562      H1578   1.084       .  S
C1563      C1573   1.400       .  A
C1563      C1564   1.411       .  A
C1564      C1570   1.413       .  A
C1564      C1565   1.413       .  A
C1565      C1567   1.413       .  A
C1565      C1566   1.412       .  A
C1566      C1574   1.400       .  A
C1567      C1576   1.408       .  A
C1567      C1568   1.404       .  A
C1568      C1569   1.402       .  A
C1568      H1579   1.083       .  S
C1569      C1570   1.404       .  A
C1569      H1580   1.084       .  S
C1570      C1571   1.409       .  A
C1571      C1572   1.406       .  A
C1571      H1581   1.084       .  S
C1572      C1573   1.406       .  A
C1573      H1582   1.085       .  S
C1574      C1575   1.403       .  A
C1574      H1583   1.085       .  S
C1575      C1576   1.405       .  A
C1576      H1584   1.084       .  S
C1585      C1586   1.401       .  A
C1585      C1590   1.404       .  A
C1585      H1601   1.083       .  S
C1586      C1587   1.404       .  A
C1586      H1602   1.084       .  S
C1587      C1597   1.406       .  A
C1587      C1588   1.413       .  A
C1588      C1594   1.412       .  A
C1588      C1589   1.410       .  A
C1589      C1591   1.411       .  A
C1589      C1590   1.414       .  A
C1590      C1598   1.407       .  A
C1591      C1600   1.396       .  A
C1591      C1592   1.402       .  A
C1592      C1593   1.396       .  A
C1592      H1603   1.084       .  S
C1593      C1594   1.402       .  A
C1593      H1604   1.084       .  S
C1594      C1595   1.397       .  A
C1595      C1596   1.402       .  A
C1595      H1605   1.085       .  S
C1596      C1597   1.403       .  A
C1597      H1606   1.084       .  S
C1598      C1599   1.404       .  A
C1598      H1607   1.084       .  S
C1599      C1600   1.403       .  A
C1600      H1608   1.086       .  S
C1609      C1610   1.401       .  A
C1609      C1614   1.404       .  A
C1609      H1625   1.083       .  S
C1610      C1611   1.404       .  A
C1610      H1626   1.084       .  S
C1611      C1621   1.407       .  A
C1611      C1612   1.411       .  A
C1612      C1618   1.411       .  A
C1612      C1613   1.414       .  A
C1613      C1615   1.412       .  A
C1613      C1614   1.413       .  A
C1614      C1622   1.408       .  A
C1615      C1624   1.404       .  A
C1615      C1616   1.404       .  A
C1616      C1617   1.399       .  A
C1616      H1627   1.084       .  S
C1617      C1618   1.404       .  A
C1617      H1628   1.083       .  S
C1618      C1619   1.404       .  A
C1619      C1620   1.409       .  A
C1619      H1629   1.084       .  S
C1620      C1621   1.409       .  A
C1621      H1630   1.084       .  S
C1622      C1623   1.406       .  A
C1622      H1631   1.084       .  S
C1623      C1624   1.406       .  A
C1624      H1632   1.085       .  S
C1633      C1634   1.403       .  A
C1633      C1638   1.405       .  A
C1633      H1649   1.083       .  S
C1634      C1635   1.405       .  A
C1634      H1650   1.084       .  S
C1635      C1645   1.409       .  A
C1635      C1636   1.412       .  A
C1636      C1642   1.413       .  A
C1636      C1637   1.415       .  A
C1637      C1639   1.411       .  A
C1637      C1638   1.414       .  A
C1638      C1646   1.411       .  A
C1639      C1648   1.400       .  A
C1639      C1640   1.403       .  A
C1640      C1641   1.397       .  A
C1640      H1651   1.084       .  S
C1641      C1642   1.403       .  A
C1641      H1652   1.083       .  S
C1642      C1643   1.403       .  A
C1643      C1644   1.403       .  A
C1643      H1653   1.085       .  S
C1644      C1645   1.407       .  A
C1645      H1654   1.084       .  S
C1646      C1647   1.407       .  A
C1646      H1655   1.084       .  S
C1647      C1648   1.406       .  A
C1648      H1656   1.085       .  S
C1657      C1658   1.403       .  A
C1657      C1662   1.405       .  A
C1657      H1673   1.083       .  S
C1658      C1659   1.405       .  A
C1658      H1674   1.084       .  S
C1659      C1669   1.409       .  A
C1659      C1660   1.413       .  A
C1660      C1666   1.412       .  A
C1660      C1661   1.415       .  A
C1661      C1663   1.411       .  A
C1661      C1662   1.414       .  A
C1662      C1670   1.412       .  A
C1663      C1672   1.400       .  A
C1663      C1664   1.403       .  A
C1664      C1665   1.397       .  A
C1664      H1675   1.084       .  S
C1665      C1666   1.403       .  A
C1665      H1676   1.083       .  S
C1666      C1667   1.402       .  A
C1667      C1668   1.404       .  A
C1667      H1677   1.085       .  S
C1668      C1669   1.406       .  A
C1669      H1678   1.084       .  S
C1670      C1671   1.407       .  A
C1670      H1679   1.084       .  S
C1671      C1672   1.407       .  A
C1672      H1680   1.085       .  S
C1681      C1682   1.400       .  A
C1681      C1686   1.404       .  A
C1681      H1697   1.083       .  S
C1682      C1683   1.404       .  A
C1682      H1698   1.083       .  S
C1683      C1693   1.404       .  A
C1683      C1684   1.411       .  A
C1684      C1690   1.412       .  A
C1684      C1685   1.414       .  A
C1685      C1687   1.410       .  A
C1685      C1686   1.413       .  A
C1686      C1694   1.407       .  A
C1687      C1696   1.403       .  A
C1687      C1688   1.404       .  A
C1688      C1689   1.399       .  A
C1688      H1699   1.084       .  S
C1689      C1690   1.404       .  A
C1689      H1700   1.084       .  S
C1690      C1691   1.405       .  A
C1691      C1692   1.409       .  A
C1691      H1701   1.084       .  S
C1692      C1693   1.408       .  A
C1693      H1702   1.084       .  S
C1694      C1695   1.408       .  A
C1694      H1703   1.084       .  S
C1695      C1696   1.410       .  A
C1696      H1704   1.084       .  S
C1705      C1706   1.401       .  A
C1705      C1710   1.405       .  A
C1705      H1721   1.083       .  S
C1706      C1707   1.404       .  A
C1706      H1722   1.083       .  S
C1707      C1717   1.407       .  A
C1707      C1708   1.414       .  A
C1708      C1714   1.410       .  A
C1708      C1709   1.411       .  A
C1709      C1711   1.411       .  A
C1709      C1710   1.411       .  A
C1710      C1718   1.406       .  A
C1711      C1720   1.399       .  A
C1711      C1712   1.403       .  A
C1712      C1713   1.396       .  A
C1712      H1723   1.084       .  S
C1713      C1714   1.402       .  A
C1713      H1724   1.084       .  S
C1714      C1715   1.396       .  A
C1715      C1716   1.404       .  A
C1715      H1725   1.085       .  S
C1716      C1717   1.404       .  A
C1717      H1726   1.084       .  S
C1718      C1719   1.409       .  A
C1718      H1727   1.084       .  S
C1719      C1720   1.407       .  A
C1720      H1728   1.084       .  S
C1729      C1730   1.402       .  A
C1729      C1734   1.405       .  A
C1729      H1745   1.084       .  S
C1730      C1731   1.405       .  A
C1730      H1746   1.083       .  S
C1731      C1741   1.409       .  A
C1731      C1732   1.412       .  A
C1732      C1738   1.411       .  A
C1732      C1733   1.414       .  A
C1733      C1735   1.412       .  A
C1733      C1734   1.411       .  A
C1734      C1742   1.408       .  A
C1735      C1744   1.403       .  A
C1735      C1736   1.403       .  A
C1736      C1737   1.398       .  A
C1736      H1747   1.083       .  S
C1737      C1738   1.403       .  A
C1737      H1748   1.084       .  S
C1738      C1739   1.402       .  A
C1739      C1740   1.407       .  A
C1739      H1749   1.084       .  S
C1740      C1741   1.409       .  A
C1741      H1750   1.084       .  S
C1742      C1743   1.410       .  A
C1742      H1751   1.084       .  S
C1743      C1744   1.407       .  A
C1744      H1752   1.084       .  S
C1753      C1754   1.396       .  A
C1753      C1758   1.402       .  A
C1753      H1769   1.084       .  S
C1754      C1755   1.402       .  A
C1754      H1770   1.083       .  S
C1755      C1765   1.396       .  A
C1755      C1756   1.411       .  A
C1756      C1762   1.414       .  A
C1756      C1757   1.409       .  A
C1757      C1759   1.411       .  A
C1757      C1758   1.411       .  A
C1758      C1766   1.397       .  A
C1759      C1768   1.403       .  A
C1759      C1760   1.404       .  A
C1760      C1761   1.399       .  A
C1760      H1771   1.083       .  S
C1761      C1762   1.403       .  A
C1761      H1772   1.084       .  S
C1762      C1763   1.404       .  A
C1763      C1764   1.402       .  A
C1763      H1773   1.085       .  S
C1764      C1765   1.402       .  A
C1765      H1774   1.085       .  S
C1766      C1767   1.406       .  A
C1766      H1775   1.085       .  S
C1767      C1768   1.407       .  A
C1768      H1776   1.084       .  S
C1777      C1778   1.406       .  A
C1777      C1782   1.406       .  A
C1777      H1793   1.083       .  S
C1778      C1779   1.407       .  A
C1778      H1794   1.083       .  S
C1779      C1789   1.415       .  A
C1779      C1780   1.412       .  A
C1780      C1786   1.410       .  A
C1780      C1781   1.419       .  A
C1781      C1783   1.410       .  A
C1781      C1782   1.412       .  A
C1782      C1790   1.416       .  A
C1783      C1792   1.403       .  A
C1783      C1784   1.403       .  A
C1784      C1785   1.398       .  A
C1784      H1795   1.083       .  S
C1785      C1786   1.403       .  A
C1785      H1796   1.084       .  S
C1786      C1787   1.403       .  A
C1787      C1788   1.410       .  A
C1787      H1797   1.084       .  S
C1788      C1789   1.413       .  A
C1789      H1798   1.084       .  S
C1790      C1791   1.413       .  A
C1790      H1799   1.084       .  S
C1791      C1792   1.411       .  A
C1792      H1800   1.084       .  S
C1801      C1802   1.397       .  A
C1801      C1806   1.402       .  A
C1801      H1817   1.084       .  S
C1802      C1803   1.403       .  A
C1802      H1818   1.084       .  S
C1803      C1813   1.399       .  A
C1803      C1804   1.411       .  A
C1804      C1810   1.413       .  A
C1804      C1805   1.413       .  A
C1805      C1807   1.414       .  A
C1805      C1806   1.411       .  A
C1806      C1814   1.398       .  A
C1807      C1816   1.409       .  A
C1807      C1808   1.405       .  A
C1808      C1809   1.403       .  A
C1808      H1819   1.083       .  S
C1809      C1810   1.405       .  A
C1809      H1820   1.083       .  S
C1810      C1811   1.410       .  A
C1811      C1812   1.406       .  A
C1811      H1821   1.084       .  S
C1812      C1813   1.404       .  A
C1813      H1822   1.085       .  S
C1814      C1815   1.404       .  A
C1814      H1823   1.085       .  S
C1815      C1816   1.405       .  A
C1816      H1824   1.084       .  S
C1825      C1826   1.397       .  A
C1825      C1830   1.403       .  A
C1825      H1841   1.084       .  S
C1826      C1827   1.403       .  A
C1826      H1842   1.084       .  S
C1827      C1837   1.401       .  A
C1827      C1828   1.411       .  A
C1828      C1834   1.411       .  A
C1828      C1829   1.413       .  A
C1829      C1831   1.412       .  A
C1829      C1830   1.410       .  A
C1830      C1838   1.400       .  A
C1831      C1840   1.408       .  A
C1831      C1832   1.405       .  A
C1832      C1833   1.402       .  A
C1832      H1843   1.083       .  S
C1833      C1834   1.405       .  A
C1833      H1844   1.084       .  S
C1834      C1835   1.408       .  A
C1835      C1836   1.410       .  A
C1835      H1845   1.084       .  S
C1836      C1837   1.408       .  A
C1837      H1846   1.084       .  S
C1838      C1839   1.408       .  A
C1838      H1847   1.084       .  S
C1839      C1840   1.409       .  A
C1840      H1848   1.084       .  S
C1849      C1850   1.401       .  A
C1849      C1854   1.405       .  A
C1849      H1865   1.083       .  S
C1850      C1851   1.404       .  A
C1850      H1866   1.084       .  S
C1851      C1861   1.408       .  A
C1851      C1852   1.414       .  A
C1852      C1858   1.411       .  A
C1852      C1853   1.415       .  A
C1853      C1855   1.414       .  A
C1853      C1854   1.411       .  A
C1854      C1862   1.406       .  A
C1855      C1864   1.407       .  A
C1855      C1856   1.404       .  A
C1856      C1857   1.400       .  A
C1856      H1867   1.084       .  S
C1857      C1858   1.404       .  A
C1857      H1868   1.083       .  S
C1858      C1859   1.404       .  A
C1859      C1860   1.408       .  A
C1859      H1869   1.084       .  S
C1860      C1861   1.405       .  A
C1861      H1870   1.085       .  S
C1862      C1863   1.408       .  A
C1862      H1871   1.084       .  S
C1863      C1864   1.405       .  A
C1864      H1872   1.085       .  S
C1873      C1874   1.400       .  A
C1873      C1878   1.404       .  A
C1873      H1889   1.083       .  S
C1874      C1875   1.404       .  A
C1874      H1890   1.084       .  S
C1875      C1885   1.405       .  A
C1875      C1876   1.412       .  A
C1876      C1882   1.413       .  A
C1876      C1877   1.415       .  A
C1877      C1879   1.412       .  A
C1877      C1878   1.413       .  A
C1878      C1886   1.407       .  A
C1879      C1888   1.406       .  A
C1879      C1880   1.404       .  A
C1880      C1881   1.401       .  A
C1880      H1891   1.084       .  S
C1881      C1882   1.404       .  A
C1881      H1892   1.083       .  S
C1882      C1883   1.408       .  A
C1883      C1884   1.406       .  A
C1883      H1893   1.084       .  S
C1884      C1885   1.406       .  A
C1885      H1894   1.085       .  S
C1886      C1887   1.404       .  A
C1886      H1895   1.084       .  S
C1887      C1888   1.405       .  A
C1888      H1896   1.085       .  S
C1897      C1898   1.404   1_455  A
C1897      C1902   1.406       .  A
C1897      H1913   1.083       .  S
C1898      C1899   1.406       .  A
C1898      H1914   1.084       .  S
C1899      C1909   1.413       .  A
C1899      C1900   1.413       .  A
C1900      C1906   1.409       .  A
C1900      C1901   1.414   1_655  A
C1901      C1903   1.411       .  A
C1901      C1902   1.412       .  A
C1902      C1910   1.411       .  A
C1903      C1912   1.398       .  A
C1903      C1904   1.402       .  A
C1904      C1905   1.395   1_455  A
C1904      H1915   1.084       .  S
C1905      C1906   1.402       .  A
C1905      H1916   1.083       .  S
C1906      C1907   1.397       .  A
C1907      C1908   1.408       .  A
C1907      H1917   1.084       .  S
C1908      C1909   1.410       .  A
C1909      H1918   1.084       .  S
C1910      C1911   1.410       .  A
C1910      H1919   1.084       .  S
C1911      C1912   1.407       .  A
C1912      H1920   1.085       .  S
C1921      C1922   1.398       .  A
C1921      C1926   1.403       .  A
C1921      H1937   1.084       .  S
C1922      C1923   1.403       .  A
C1922      H1938   1.084       .  S
C1923      C1933   1.402       .  A
C1923      C1924   1.413       .  A
C1924      C1930   1.413       .  A
C1924      C1925   1.413       .  A
C1925      C1927   1.413       .  A
C1925      C1926   1.413       .  A
C1926      C1934   1.403       .  A
C1927      C1936   1.406       .  A
C1927      C1928   1.404       .  A
C1928      C1929   1.401       .  A
C1928      H1939   1.083       .  S
C1929      C1930   1.404       .  A
C1929      H1940   1.083       .  S
C1930      C1931   1.406       .  A
C1931      C1932   1.404       .  A
C1931      H1941   1.084       .  S
C1932      C1933   1.402       .  A
C1933      H1942   1.085       .  S
C1934      C1935   1.403       .  A
C1934      H1943   1.085       .  S
C1935      C1936   1.405       .  A
C1936      H1944   1.084       .  S
C1945      C1946   1.397       .  A
C1945      C1950   1.402       .  A
C1945      H1961   1.084       .  S
C1946      C1947   1.403       .  A
C1946      H1962   1.083       .  S
C1947      C1957   1.401       .  A
C1947      C1948   1.411       .  A
C1948      C1954   1.413       .  A
C1948      C1949   1.416       .  A
C1949      C1951   1.413       .  A
C1949      C1950   1.412       .  A
C1950      C1958   1.402       .  A
C1951      C1960   1.412       .  A
C1951      C1952   1.406       .  A
C1952      C1953   1.404       .  A
C1952      H1963   1.083       .  S
C1953      C1954   1.406       .  A
C1953      H1964   1.084       .  S
C1954      C1955   1.413       .  A
C1955      C1956   1.408       .  A
C1955      H1965   1.084       .  S
C1956      C1957   1.406       .  A
C1957      H1966   1.085       .  S
C1958      C1959   1.403       .  A
C1958      H1967   1.085       .  S
C1959      C1960   1.408       .  A
C1960      H1968   1.084       .  S
C1969      C1970   1.401       .  A
C1969      C1974   1.403       .  A
C1969      H1985   1.087       .  S
C1970      C1971   1.405       .  A
C1970      H1986   1.081       .  S
C1971      C1981   1.406       .  A
C1971      C1972   1.412       .  A
C1972      C1978   1.414       .  A
C1972      C1973   1.415       .  A
C1973      C1975   1.411       .  A
C1973      C1974   1.414       .  A
C1974      C1982   1.408       .  A
C1975      C1984   1.403       .  A
C1975      C1976   1.404       .  A
C1976      C1977   1.400       .  A
C1976      H1987   1.084       .  S
C1977      C1978   1.404       .  A
C1977      H1988   1.083       .  S
C1978      C1979   1.406       .  A
C1979      C1980   1.404       .  A
C1979      H1989   1.084       .  S
C1980      C1981   1.405       .  A
C1981      H1990   1.084       .  S
C1982      C1983   1.405       .  A
C1982      H1991   1.088       .  S
C1983      C1984   1.407       .  A
C1984      H1992   1.085       .  S
C1993      C1994   1.403   1_455  A
C1993      C1998   1.405       .  A
C1993      H2009   1.083       .  S
C1994      C1995   1.405       .  A
C1994      H2010   1.084       .  S
C1995      C2005   1.409       .  A
C1995      C1996   1.412       .  A
C1996      C2002   1.411       .  A
C1996      C1997   1.414   1_655  A
C1997      C1999   1.411       .  A
C1997      C1998   1.412       .  A
C1998      C2006   1.409       .  A
C1999      C2008   1.401       .  A
C1999      C2000   1.403       .  A
C2000      C2001   1.397   1_455  A
C2000      H2011   1.084       .  S
C2001      C2002   1.403       .  A
C2001      H2012   1.083       .  S
C2002      C2003   1.401       .  A
C2003      C2004   1.408       .  A
C2003      H2013   1.084       .  S
C2004      C2005   1.410       .  A
C2005      H2014   1.084       .  S
C2006      C2007   1.410       .  A
C2006      H2015   1.084       .  S
C2007      C2008   1.408       .  A
C2008      H2016   1.084       .  S
C2017      C2018   1.396       .  A
C2017      C2022   1.404       .  A
C2017      H2033   1.080       .  S
C2018      C2019   1.401       .  A
C2018      H2034   1.089       .  S
C2019      C2029   1.400       .  A
C2019      C2020   1.413       .  A
C2020      C2026   1.410       .  A
C2020      C2021   1.413       .  A
C2021      C2023   1.415       .  A
C2021      C2022   1.410       .  A
C2022      C2030   1.398       .  A
C2023      C2032   1.411       .  A
C2023      C2024   1.404       .  A
C2024      C2025   1.403       .  A
C2024      H2035   1.084       .  S
C2025      C2026   1.406       .  A
C2025      H2036   1.082       .  S
C2026      C2027   1.407       .  A
C2027      C2028   1.411       .  A
C2027      H2037   1.082       .  S
C2028      C2029   1.405       .  A
C2029      H2038   1.089       .  S
C2030      C2031   1.405       .  A
C2030      H2039   1.083       .  S
C2031      C2032   1.405       .  A
C2032      H2040   1.084       .  S
C2041      C2042   1.399       .  A
C2041      C2046   1.403       .  A
C2041      H2057   1.084       .  S
C2042      C2043   1.404       .  A
C2042      H2058   1.083       .  S
C2043      C2053   1.402       .  A
C2043      C2044   1.411       .  A
C2044      C2050   1.412       .  A
C2044      C2045   1.409       .  A
C2045      C2047   1.410       .  A
C2045      C2046   1.412       .  A
C2046      C2054   1.403       .  A
C2047      C2056   1.397       .  A
C2047      C2048   1.403       .  A
C2048      C2049   1.396       .  A
C2048      H2059   1.083       .  S
C2049      C2050   1.402       .  A
C2049      H2060   1.084       .  S
C2050      C2051   1.398       .  A
C2051      C2052   1.405       .  A
C2051      H2061   1.085       .  S
C2052      C2053   1.407       .  A
C2053      H2062   1.084       .  S
C2054      C2055   1.406       .  A
C2054      H2063   1.085       .  S
C2055      C2056   1.406       .  A
C2056      H2064   1.084       .  S
C2065      C2066   1.398       .  A
C2065      C2070   1.403       .  A
C2065      H2081   1.084       .  S
C2066      C2067   1.403       .  A
C2066      H2082   1.084       .  S
C2067      C2077   1.403       .  A
C2067      C2068   1.413       .  A
C2068      C2074   1.413       .  A
C2068      C2069   1.416       .  A
C2069      C2071   1.413       .  A
C2069      C2070   1.412       .  A
C2070      C2078   1.403       .  A
C2071      C2080   1.411       .  A
C2071      C2072   1.405       .  A
C2072      C2073   1.403       .  A
C2072      H2083   1.084       .  S
C2073      C2074   1.405       .  A
C2073      H2084   1.083       .  S
C2074      C2075   1.410       .  A
C2075      C2076   1.407       .  A
C2075      H2085   1.084       .  S
C2076      C2077   1.403       .  A
C2077      H2086   1.085       .  S
C2078      C2079   1.405       .  A
C2078      H2087   1.085       .  S
C2079      C2080   1.407       .  A
C2080      H2088   1.084       .  S
C2089      C2090   1.400       .  A
C2089      C2094   1.404       .  A
C2089      H2105   1.084       .  S
C2090      C2091   1.404       .  A
C2090      H2106   1.083       .  S
C2091      C2101   1.407       .  A
C2091      C2092   1.414       .  A
C2092      C2098   1.411       .  A
C2092      C2093   1.414       .  A
C2093      C2095   1.412       .  A
C2093      C2094   1.413       .  A
C2094      C2102   1.406       .  A
C2095      C2104   1.403       .  A
C2095      C2096   1.404       .  A
C2096      C2097   1.399       .  A
C2096      H2107   1.083       .  S
C2097      C2098   1.404       .  A
C2097      H2108   1.084       .  S
C2098      C2099   1.402       .  A
C2099      C2100   1.407       .  A
C2099      H2109   1.085       .  S
C2100      C2101   1.404       .  A
C2101      H2110   1.084       .  S
C2102      C2103   1.404       .  A
C2102      H2111   1.085       .  S
C2103      C2104   1.405       .  A
C2104      H2112   1.084       .  S
C2113      C2114   1.397       .  A
C2113      C2118   1.403       .  A
C2113      H2129   1.084       .  S
C2114      C2115   1.403       .  A
C2114      H2130   1.083       .  S
C2115      C2125   1.401       .  A
C2115      C2116   1.409       .  A
C2116      C2122   1.413       .  A
C2116      C2117   1.416       .  A
C2117      C2119   1.412       .  A
C2117      C2118   1.412       .  A
C2118      C2126   1.403       .  A
C2119      C2128   1.412       .  A
C2119      C2120   1.406       .  A
C2120      C2121   1.405       .  A
C2120      H2131   1.083       .  S
C2121      C2122   1.406       .  A
C2121      H2132   1.084       .  S
C2122      C2123   1.414       .  A
C2123      C2124   1.411       .  A
C2123      H2133   1.084       .  S
C2124      C2125   1.410       .  A
C2125      H2134   1.084       .  S
C2126      C2127   1.406       .  A
C2126      H2135   1.085       .  S
C2127      C2128   1.410       .  A
C2128      H2136   1.084       .  S
C2137      C2138   1.401       .  A
C2137      C2142   1.404       .  A
C2137      H2153   1.083       .  S
C2138      C2139   1.404       .  A
C2138      H2154   1.083       .  S
C2139      C2149   1.408       .  A
C2139      C2140   1.411       .  A
C2140      C2146   1.411       .  A
C2140      C2141   1.416       .  A
C2141      C2143   1.410       .  A
C2141      C2142   1.412       .  A
C2142      C2150   1.409       .  A
C2143      C2152   1.405       .  A
C2143      C2144   1.405       .  A
C2144      C2145   1.400       .  A
C2144      H2155   1.084       .  S
C2145      C2146   1.404       .  A
C2145      H2156   1.083       .  S
C2146      C2147   1.406       .  A
C2147      C2148   1.410       .  A
C2147      H2157   1.084       .  S
C2148      C2149   1.409       .  A
C2149      H2158   1.084       .  S
C2150      C2151   1.408       .  A
C2150      H2159   1.084       .  S
C2151      C2152   1.411       .  A
C2152      H2160   1.084       .  S
C2161      C2162   1.395       .  A
C2161      C2166   1.402       .  A
C2161      H2177   1.084       .  S
C2162      C2163   1.402       .  A
C2162      H2178   1.084       .  S
C2163      C2173   1.397       .  A
C2163      C2164   1.411       .  A
C2164      C2170   1.411       .  A
C2164      C2165   1.412       .  A
C2165      C2167   1.412       .  A
C2165      C2166   1.410       .  A
C2166      C2174   1.397       .  A
C2167      C2176   1.409       .  A
C2167      C2168   1.405       .  A
C2168      C2169   1.403       .  A
C2168      H2179   1.084       .  S
C2169      C2170   1.406       .  A
C2169      H2180   1.083       .  S
C2170      C2171   1.409       .  A
C2171      C2172   1.411       .  A
C2171      H2181   1.084       .  S
C2172      C2173   1.406       .  A
C2173      H2182   1.084       .  S
C2174      C2175   1.406       .  A
C2174      H2183   1.084       .  S
C2175      C2176   1.410       .  A
C2176      H2184   1.084       .  S
C2185      C2186   1.394       .  A
C2185      C2190   1.401       .  A
C2185      H2201   1.084       .  S
C2186      C2187   1.401       .  A
C2186      H2202   1.084       .  S
C2187      C2197   1.393       .  A
C2187      C2188   1.411       .  A
C2188      C2194   1.414       .  A
C2188      C2189   1.408       .  A
C2189      C2191   1.411       .  A
C2189      C2190   1.411       .  A
C2190      C2198   1.394       .  A
C2191      C2200   1.405       .  A
C2191      C2192   1.405       .  A
C2192      C2193   1.401       .  A
C2192      H2203   1.083       .  S
C2193      C2194   1.404       .  A
C2193      H2204   1.084       .  S
C2194      C2195   1.406       .  A
C2195      C2196   1.403       .  A
C2195      H2205   1.084       .  S
C2196      C2197   1.402       .  A
C2197      H2206   1.085       .  S
C2198      C2199   1.404       .  A
C2198      H2207   1.085       .  S
C2199      C2200   1.409       .  A
C2200      H2208   1.084       .  S
C2209      C2210   1.400       .  A
C2209      C2214   1.404       .  A
C2209      H2225   1.083       .  S
C2210      C2211   1.404   1_565  A
C2210      H2226   1.084   1_565  S
C2211      C2221   1.405       .  A
C2211      C2212   1.410   1_545  A
C2212      C2218   1.412   1_565  A
C2212      C2213   1.417       .  A
C2213      C2215   1.412       .  A
C2213      C2214   1.411       .  A
C2214      C2222   1.405       .  A
C2215      C2224   1.409       .  A
C2215      C2216   1.405       .  A
C2216      C2217   1.402       .  A
C2216      H2227   1.084       .  S
C2217      C2218   1.405   1_565  A
C2217      H2228   1.083   1_565  S
C2218      C2219   1.410       .  A
C2219      C2220   1.409       .  A
C2219      H2229   1.084       .  S
C2220      C2221   1.411       .  A
C2221      H2230   1.084       .  S
C2222      C2223   1.411       .  A
C2222      H2231   1.084       .  S
C2223      C2224   1.410       .  A
C2224      H2232   1.084       .  S
C2233      C2234   1.403       .  A
C2233      C2238   1.405       .  A
C2233      H2249   1.083       .  S
C2234      C2235   1.405       .  A
C2234      H2250   1.084       .  S
C2235      C2245   1.410       .  A
C2235      C2236   1.412       .  A
C2236      C2242   1.413       .  A
C2236      C2237   1.417       .  A
C2237      C2239   1.412       .  A
C2237      C2238   1.414       .  A
C2238      C2246   1.412       .  A
C2239      C2248   1.405       .  A
C2239      C2240   1.404       .  A
C2240      C2241   1.399       .  A
C2240      H2251   1.084       .  S
C2241      C2242   1.404       .  A
C2241      H2252   1.084       .  S
C2242      C2243   1.405       .  A
C2243      C2244   1.405       .  A
C2243      H2253   1.085       .  S
C2244      C2245   1.407       .  A
C2245      H2254   1.084       .  S
C2246      C2247   1.408       .  A
C2246      H2255   1.084       .  S
C2247      C2248   1.406       .  A
C2248      H2256   1.085       .  S
C2257      C2258   1.403       .  A
C2257      C2262   1.406       .  A
C2257      H2273   1.084       .  S
C2258      C2259   1.405       .  A
C2258      H2274   1.083       .  S
C2259      C2269   1.413       .  A
C2259      C2260   1.414       .  A
C2260      C2266   1.410       .  A
C2260      C2261   1.417       .  A
C2261      C2263   1.414       .  A
C2261      C2262   1.411       .  A
C2262      C2270   1.409       .  A
C2263      C2272   1.406       .  A
C2263      C2264   1.403       .  A
C2264      C2265   1.399       .  A
C2264      H2275   1.083       .  S
C2265      C2266   1.404       .  A
C2265      H2276   1.084       .  S
C2266      C2267   1.402       .  A
C2267      C2268   1.408       .  A
C2267      H2277   1.085       .  S
C2268      C2269   1.408       .  A
C2269      H2278   1.084       .  S
C2270      C2271   1.410       .  A
C2270      H2279   1.085       .  S
C2271      C2272   1.404       .  A
C2272      H2280   1.085       .  S
C2281      C2282   1.402   1_455  A
C2281      C2286   1.405       .  A
C2281      H2297   1.084       .  S
C2282      C2283   1.405       .  A
C2282      H2298   1.083       .  S
C2283      C2293   1.407       .  A
C2283      C2284   1.412       .  A
C2284      C2290   1.411       .  A
C2284      C2285   1.414   1_655  A
C2285      C2287   1.410       .  A
C2285      C2286   1.412       .  A
C2286      C2294   1.408       .  A
C2287      C2296   1.401       .  A
C2287      C2288   1.403       .  A
C2288      C2289   1.398   1_455  A
C2288      H2299   1.083       .  S
C2289      C2290   1.403       .  A
C2289      H2300   1.084       .  S
C2290      C2291   1.402       .  A
C2291      C2292   1.407       .  A
C2291      H2301   1.084       .  S
C2292      C2293   1.409       .  A
C2293      H2302   1.084       .  S
C2294      C2295   1.409       .  A
C2294      H2303   1.084       .  S
C2295      C2296   1.408       .  A
C2296      H2304   1.084       .  S
C2305      C2306   1.405   1_565  A
C2305      C2310   1.406       .  A
C2305      H2321   1.083       .  S
C2306      C2307   1.406       .  A
C2306      H2322   1.083       .  S
C2307      C2317   1.414       .  A
C2307      C2308   1.411       .  A
C2308      C2314   1.411       .  A
C2308      C2309   1.418   1_545  A
C2309      C2311   1.410       .  A
C2309      C2310   1.413       .  A
C2310      C2318   1.415       .  A
C2311      C2320   1.403       .  A
C2311      C2312   1.403       .  A
C2312      C2313   1.398   1_565  A
C2312      H2323   1.083       .  S
C2313      C2314   1.403       .  A
C2313      H2324   1.084       .  S
C2314      C2315   1.404       .  A
C2315      C2316   1.409       .  A
C2315      H2325   1.084       .  S
C2316      C2317   1.413       .  A
C2317      H2326   1.083       .  S
C2318      C2319   1.412       .  A
C2318      H2327   1.084       .  S
C2319      C2320   1.410       .  A
C2320      H2328   1.084       .  S
C2329      C2330   1.397       .  A
C2329      C2334   1.403       .  A
C2329      H2345   1.083       .  S
C2330      C2331   1.402       .  A
C2330      H2346   1.084       .  S
C2331      C2341   1.399       .  A
C2331      C2332   1.410       .  A
C2332      C2338   1.412       .  A
C2332      C2333   1.412       .  A
C2333      C2335   1.411       .  A
C2333      C2334   1.412       .  A
C2334      C2342   1.401       .  A
C2335      C2344   1.405       .  A
C2335      C2336   1.405       .  A
C2336      C2337   1.401       .  A
C2336      H2347   1.084       .  S
C2337      C2338   1.405       .  A
C2337      H2348   1.083       .  S
C2338      C2339   1.406       .  A
C2339      C2340   1.409       .  A
C2339      H2349   1.084       .  S
C2340      C2341   1.406       .  A
C2341      H2350   1.084       .  S
C2342      C2343   1.407       .  A
C2342      H2351   1.084       .  S
C2343      C2344   1.410       .  A
C2344      H2352   1.084       .  S
C2353      C2354   1.402       .  A
C2353      C2358   1.405       .  A
C2353      H2369   1.083       .  S
C2354      C2355   1.405       .  A
C2354      H2370   1.084       .  S
C2355      C2365   1.409       .  A
C2355      C2356   1.413       .  A
C2356      C2362   1.413       .  A
C2356      C2357   1.415       .  A
C2357      C2359   1.411       .  A
C2357      C2358   1.414       .  A
C2358      C2366   1.411       .  A
C2359      C2368   1.400       .  A
C2359      C2360   1.403       .  A
C2360      C2361   1.398       .  A
C2360      H2371   1.084       .  S
C2361      C2362   1.403       .  A
C2361      H2372   1.083       .  S
C2362      C2363   1.403       .  A
C2363      C2364   1.404       .  A
C2363      H2373   1.085       .  S
C2364      C2365   1.406       .  A
C2365      H2374   1.085       .  S
C2366      C2367   1.407       .  A
C2366      H2375   1.084       .  S
C2367      C2368   1.406       .  A
C2368      H2376   1.085       .  S
C2377      C2378   1.403       .  A
C2377      C2382   1.405       .  A
C2377      H2393   1.083       .  S
C2378      C2379   1.406       .  A
C2378      H2394   1.083       .  S
C2379      C2389   1.409       .  A
C2379      C2380   1.411       .  A
C2380      C2386   1.411       .  A
C2380      C2381   1.415       .  A
C2381      C2383   1.411       .  A
C2381      C2382   1.413       .  A
C2382      C2390   1.411       .  A
C2383      C2392   1.402       .  A
C2383      C2384   1.403       .  A
C2384      C2385   1.398       .  A
C2384      H2395   1.083       .  S
C2385      C2386   1.403       .  A
C2385      H2396   1.084       .  S
C2386      C2387   1.402       .  A
C2387      C2388   1.408       .  A
C2387      H2397   1.084       .  S
C2388      C2389   1.411       .  A
C2389      H2398   1.084       .  S
C2390      C2391   1.408       .  A
C2390      H2399   1.084       .  S
C2391      C2392   1.404       .  A
C2392      H2400   1.085       .  S
C2401      C2402   1.402       .  A
C2401      C2406   1.405       .  A
C2401      H2417   1.084       .  S
C2402      C2403   1.405       .  A
C2402      H2418   1.083       .  S
C2403      C2413   1.407       .  A
C2403      C2404   1.411       .  A
C2404      C2410   1.411       .  A
C2404      C2405   1.413       .  A
C2405      C2407   1.411       .  A
C2405      C2406   1.412       .  A
C2406      C2414   1.407       .  A
C2407      C2416   1.400       .  A
C2407      C2408   1.403       .  A
C2408      C2409   1.397       .  A
C2408      H2419   1.084       .  S
C2409      C2410   1.403       .  A
C2409      H2420   1.084       .  S
C2410      C2411   1.401       .  A
C2411      C2412   1.407       .  A
C2411      H2421   1.084       .  S
C2412      C2413   1.410       .  A
C2413      H2422   1.083       .  S
C2414      C2415   1.410       .  A
C2414      H2423   1.084       .  S
C2415      C2416   1.407       .  A
C2416      H2424   1.084       .  S
C2425      C2426   1.399       .  A
C2425      C2430   1.403       .  A
C2425      H2441   1.084       .  S
C2426      C2427   1.404       .  A
C2426      H2442   1.083       .  S
C2427      C2437   1.403       .  A
C2427      C2428   1.411       .  A
C2428      C2434   1.414       .  A
C2428      C2429   1.414       .  A
C2429      C2431   1.411       .  A
C2429      C2430   1.414       .  A
C2430      C2438   1.406       .  A
C2431      C2440   1.402       .  A
C2431      C2432   1.404       .  A
C2432      C2433   1.400       .  A
C2432      H2443   1.083       .  S
C2433      C2434   1.404       .  A
C2433      H2444   1.084       .  S
C2434      C2435   1.406       .  A
C2435      C2436   1.405       .  A
C2435      H2445   1.085       .  S
C2436      C2437   1.405       .  A
C2437      H2446   1.084       .  S
C2438      C2439   1.403       .  A
C2438      H2447   1.085       .  S
C2439      C2440   1.407       .  A
C2440      H2448   1.085       .  S
C2449      C2450   1.397       .  A
C2449      C2454   1.403       .  A
C2449      H2465   1.084       .  S
C2450      C2451   1.403       .  A
C2450      H2466   1.083       .  S
C2451      C2461   1.401       .  A
C2451      C2452   1.412       .  A
C2452      C2458   1.413       .  A
C2452      C2453   1.413       .  A
C2453      C2455   1.413       .  A
C2453      C2454   1.412       .  A
C2454      C2462   1.399       .  A
C2455      C2464   1.408       .  A
C2455      C2456   1.404       .  A
C2456      C2457   1.402       .  A
C2456      H2467   1.083       .  S
C2457      C2458   1.404       .  A
C2457      H2468   1.083       .  S
C2458      C2459   1.408       .  A
C2459      C2460   1.405       .  A
C2459      H2469   1.084       .  S
C2460      C2461   1.404       .  A
C2461      H2470   1.085       .  S
C2462      C2463   1.403       .  A
C2462      H2471   1.085       .  S
C2463      C2464   1.405       .  A
C2464      H2472   1.084       .  S
C2473      C2474   1.393   1_455  A
C2473      C2478   1.401       .  A
C2473      H2489   1.083       .  S
C2474      C2475   1.401       .  A
C2474      H2490   1.084       .  S
C2475      C2485   1.394       .  A
C2475      C2476   1.410       .  A
C2476      C2482   1.413       .  A
C2476      C2477   1.414   1_655  A
C2477      C2479   1.412       .  A
C2477      C2478   1.410       .  A
C2478      C2486   1.395       .  A
C2479      C2488   1.415       .  A
C2479      C2480   1.407       .  A
C2480      C2481   1.406   1_455  A
C2480      H2491   1.084       .  S
C2481      C2482   1.407       .  A
C2481      H2492   1.083       .  S
C2482      C2483   1.414       .  A
C2483      C2484   1.411       .  A
C2483      H2493   1.084       .  S
C2484      C2485   1.405       .  A
C2485      H2494   1.085       .  S
C2486      C2487   1.406       .  A
C2486      H2495   1.084       .  S
C2487      C2488   1.412       .  A
C2488      H2496   1.084       .  S
C2497      C2498   1.396       .  A
C2497      C2502   1.402       .  A
C2497      H2513   1.084       .  S
C2498      C2499   1.402       .  A
C2498      H2514   1.084       .  S
C2499      C2509   1.400       .  A
C2499      C2500   1.413       .  A
C2500      C2506   1.410       .  A
C2500      C2501   1.410       .  A
C2501      C2503   1.415       .  A
C2501      C2502   1.410       .  A
C2502      C2510   1.395       .  A
C2503      C2512   1.407       .  A
C2503      C2504   1.404       .  A
C2504      C2505   1.401       .  A
C2504      H2515   1.084       .  S
C2505      C2506   1.405       .  A
C2505      H2516   1.083       .  S
C2506      C2507   1.403       .  A
C2507      C2508   1.410       .  A
C2507      H2517   1.084       .  S
C2508      C2509   1.405       .  A
C2509      H2518   1.084       .  S
C2510      C2511   1.403       .  A
C2510      H2519   1.085       .  S
C2511      C2512   1.404       .  A
C2512      H2520   1.084       .  S
C2521      C2522   1.404       .  A
C2521      C2526   1.405       .  A
C2521      H2537   1.083       .  S
C2522      C2523   1.405       .  A
C2522      H2538   1.083       .  S
C2523      C2533   1.413       .  A
C2523      C2524   1.414       .  A
C2524      C2530   1.411       .  A
C2524      C2525   1.416       .  A
C2525      C2527   1.411       .  A
C2525      C2526   1.414       .  A
C2526      C2534   1.414       .  A
C2527      C2536   1.402       .  A
C2527      C2528   1.404       .  A
C2528      C2529   1.398       .  A
C2528      H2539   1.084       .  S
C2529      C2530   1.403       .  A
C2529      H2540   1.084       .  S
C2530      C2531   1.401       .  A
C2531      C2532   1.407       .  A
C2531      H2541   1.085       .  S
C2532      C2533   1.407       .  A
C2533      H2542   1.084       .  S
C2534      C2535   1.407       .  A
C2534      H2543   1.084       .  S
C2535      C2536   1.408       .  A
C2536      H2544   1.085       .  S
C2545      C2546   1.397       .  A
C2545      C2550   1.402       .  A
C2545      H2561   1.084       .  S
C2546      C2547   1.403       .  A
C2546      H2562   1.084       .  S
C2547      C2557   1.399       .  A
C2547      C2548   1.411       .  A
C2548      C2554   1.414       .  A
C2548      C2549   1.413       .  A
C2549      C2551   1.413       .  A
C2549      C2550   1.413       .  A
C2550      C2558   1.401       .  A
C2551      C2560   1.408       .  A
C2551      C2552   1.405       .  A
C2552      C2553   1.402       .  A
C2552      H2563   1.083       .  S
C2553      C2554   1.404       .  A
C2553      H2564   1.084       .  S
C2554      C2555   1.410       .  A
C2555      C2556   1.406       .  A
C2555      H2565   1.084       .  S
C2556      C2557   1.406       .  A
C2557      H2566   1.085       .  S
C2558      C2559   1.403       .  A
C2558      H2567   1.085       .  S
C2559      C2560   1.406       .  A
C2560      H2568   1.084       .  S
C2569      C2570   1.398       .  A
C2569      C2574   1.404       .  A
C2569      H2585   1.084       .  S
C2570      C2571   1.403       .  A
C2570      H2586   1.083       .  S
C2571      C2581   1.402       .  A
C2571      C2572   1.413       .  A
C2572      C2578   1.413       .  A
C2572      C2573   1.413       .  A
C2573      C2575   1.413       .  A
C2573      C2574   1.412       .  A
C2574      C2582   1.403       .  A
C2575      C2584   1.407       .  A
C2575      C2576   1.404       .  A
C2576      C2577   1.401       .  A
C2576      H2587   1.083       .  S
C2577      C2578   1.404       .  A
C2577      H2588   1.084       .  S
C2578      C2579   1.406       .  A
C2579      C2580   1.404       .  A
C2579      H2589   1.085       .  S
C2580      C2581   1.402       .  A
C2581      H2590   1.085       .  S
C2582      C2583   1.405       .  A
C2582      H2591   1.085       .  S
C2583      C2584   1.405       .  A
C2584      H2592   1.084       .  S
C2593      C2594   1.404       .  A
C2593      C2598   1.406       .  A
C2593      H2609   1.083       .  S
C2594      C2595   1.406       .  A
C2594      H2610   1.083       .  S
C2595      C2605   1.413       .  A
C2595      C2596   1.412       .  A
C2596      C2602   1.410       .  A
C2596      C2597   1.417       .  A
C2597      C2599   1.410       .  A
C2597      C2598   1.412       .  A
C2598      C2606   1.412       .  A
C2599      C2608   1.403       .  A
C2599      C2600   1.403       .  A
C2600      C2601   1.398       .  A
C2600      H2611   1.084       .  S
C2601      C2602   1.403       .  A
C2601      H2612   1.084       .  S
C2602      C2603   1.403       .  A
C2603      C2604   1.410       .  A
C2603      H2613   1.084       .  S
C2604      C2605   1.412       .  A
C2605      H2614   1.084       .  S
C2606      C2607   1.411       .  A
C2606      H2615   1.084       .  S
C2607      C2608   1.410       .  A
C2608      H2616   1.084       .  S
C2617      C2618   1.402       .  A
C2617      C2622   1.404       .  A
C2617      H2633   1.083       .  S
C2618      C2619   1.405       .  A
C2618      H2634   1.084       .  S
C2619      C2629   1.407       .  A
C2619      C2620   1.411       .  A
C2620      C2626   1.412       .  A
C2620      C2621   1.413       .  A
C2621      C2623   1.410       .  A
C2621      C2622   1.414       .  A
C2622      C2630   1.409       .  A
C2623      C2632   1.398       .  A
C2623      C2624   1.403       .  A
C2624      C2625   1.397       .  A
C2624      H2635   1.084       .  S
C2625      C2626   1.403       .  A
C2625      H2636   1.083       .  S
C2626      C2627   1.401       .  A
C2627      C2628   1.408       .  A
C2627      H2637   1.084       .  S
C2628      C2629   1.409       .  A
C2629      H2638   1.084       .  S
C2630      C2631   1.405       .  A
C2630      H2639   1.084       .  S
C2631      C2632   1.405       .  A
C2632      H2640   1.086       .  S
C2641      C2642   1.397       .  A
C2641      C2646   1.403       .  A
C2641      H2657   1.083       .  S
C2642      C2643   1.403       .  A
C2642      H2658   1.084       .  S
C2643      C2653   1.400       .  A
C2643      C2644   1.410       .  A
C2644      C2650   1.413       .  A
C2644      C2645   1.414       .  A
C2645      C2647   1.411       .  A
C2645      C2646   1.411       .  A
C2646      C2654   1.401       .  A
C2647      C2656   1.409       .  A
C2647      C2648   1.405       .  A
C2648      C2649   1.403       .  A
C2648      H2659   1.084       .  S
C2649      C2650   1.405       .  A
C2649      H2660   1.083       .  S
C2650      C2651   1.411       .  A
C2651      C2652   1.409       .  A
C2651      H2661   1.084       .  S
C2652      C2653   1.409       .  A
C2653      H2662   1.084       .  S
C2654      C2655   1.407       .  A
C2654      H2663   1.084       .  S
C2655      C2656   1.410       .  A
C2656      H2664   1.084       .  S
C2665      C2666   1.399       .  A
C2665      C2670   1.403       .  A
C2665      H2681   1.084       .  S
C2666      C2667   1.404       .  A
C2666      H2682   1.084       .  S
C2667      C2677   1.402       .  A
C2667      C2668   1.410       .  A
C2668      C2674   1.412       .  A
C2668      C2669   1.412       .  A
C2669      C2671   1.410       .  A
C2669      C2670   1.412       .  A
C2670      C2678   1.403       .  A
C2671      C2680   1.402       .  A
C2671      C2672   1.403       .  A
C2672      C2673   1.399       .  A
C2672      H2683   1.084       .  S
C2673      C2674   1.403       .  A
C2673      H2684   1.083       .  S
C2674      C2675   1.404       .  A
C2675      C2676   1.407       .  A
C2675      H2685   1.084       .  S
C2676      C2677   1.410       .  A
C2677      H2686   1.084       .  S
C2678      C2679   1.408       .  A
C2678      H2687   1.084       .  S
C2679      C2680   1.408       .  A
C2680      H2688   1.084       .  S
C2689      C2690   1.395       .  A
C2689      C2694   1.402       .  A
C2689      H2705   1.084       .  S
C2690      C2691   1.402       .  A
C2690      H2706   1.084       .  S
C2691      C2701   1.396       .  A
C2691      C2692   1.411       .  A
C2692      C2698   1.413       .  A
C2692      C2693   1.411       .  A
C2693      C2695   1.414       .  A
C2693      C2694   1.411       .  A
C2694      C2702   1.396       .  A
C2695      C2704   1.410       .  A
C2695      C2696   1.405       .  A
C2696      C2697   1.403       .  A
C2696      H2707   1.083       .  S
C2697      C2698   1.405       .  A
C2697      H2708   1.084       .  S
C2698      C2699   1.409       .  A
C2699      C2700   1.406       .  A
C2699      H2709   1.084       .  S
C2700      C2701   1.402       .  A
C2701      H2710   1.085       .  S
C2702      C2703   1.402       .  A
C2702      H2711   1.085       .  S
C2703      C2704   1.405       .  A
C2704      H2712   1.084       .  S
C2713      C2714   1.403   1_554  A
C2713      C2718   1.405       .  A
C2713      H2729   1.083       .  S
C2714      C2715   1.405       .  A
C2714      H2730   1.083       .  S
C2715      C2725   1.410       .  A
C2715      C2716   1.412       .  A
C2716      C2722   1.410       .  A
C2716      C2717   1.413   1_556  A
C2717      C2719   1.410       .  A
C2717      C2718   1.412       .  A
C2718      C2726   1.410       .  A
C2719      C2728   1.398       .  A
C2719      C2720   1.403       .  A
C2720      C2721   1.396   1_554  A
C2720      H2731   1.083       .  S
C2721      C2722   1.403       .  A
C2721      H2732   1.084       .  S
C2722      C2723   1.398       .  A
C2723      C2724   1.408       .  A
C2723      H2733   1.084       .  S
C2724      C2725   1.409       .  A
C2725      H2734   1.084       .  S
C2726      C2727   1.409       .  A
C2726      H2735   1.084       .  S
C2727      C2728   1.408       .  A
C2728      H2736   1.084       .  S
C2737      C2738   1.398       .  A
C2737      C2742   1.404       .  A
C2737      H2753   1.084       .  S
C2738      C2739   1.403       .  A
C2738      H2754   1.083       .  S
C2739      C2749   1.403       .  A
C2739      C2740   1.413       .  A
C2740      C2746   1.412       .  A
C2740      C2741   1.414       .  A
C2741      C2743   1.414       .  A
C2741      C2742   1.411       .  A
C2742      C2750   1.401       .  A
C2743      C2752   1.408       .  A
C2743      C2744   1.404       .  A
C2744      C2745   1.401       .  A
C2744      H2755   1.083       .  S
C2745      C2746   1.404       .  A
C2745      H2756   1.083       .  S
C2746      C2747   1.406       .  A
C2747      C2748   1.405       .  A
C2747      H2757   1.085       .  S
C2748      C2749   1.402       .  A
C2749      H2758   1.085       .  S
C2750      C2751   1.407       .  A
C2750      H2759   1.085       .  S
C2751      C2752   1.405       .  A
C2752      H2760   1.084       .  S
C2761      C2762   1.397       .  A
C2761      C2766   1.403       .  A
C2761      H2777   1.084       .  S
C2762      C2763   1.403       .  A
C2762      H2778   1.084       .  S
C2763      C2773   1.399       .  A
C2763      C2764   1.410       .  A
C2764      C2770   1.414       .  A
C2764      C2765   1.415       .  A
C2765      C2767   1.413       .  A
C2765      C2766   1.412       .  A
C2766      C2774   1.402       .  A
C2767      C2776   1.411       .  A
C2767      C2768   1.405       .  A
C2768      C2769   1.404       .  A
C2768      H2779   1.083       .  S
C2769      C2770   1.405       .  A
C2769      H2780   1.084       .  S
C2770      C2771   1.413       .  A
C2771      C2772   1.408       .  A
C2771      H2781   1.084       .  S
C2772      C2773   1.407       .  A
C2773      H2782   1.085       .  S
C2774      C2775   1.404       .  A
C2774      H2783   1.085       .  S
C2775      C2776   1.407       .  A
C2776      H2784   1.084       .  S
C2785      C2786   1.404   1_554  A
C2785      C2790   1.406       .  A
C2785      H2801   1.083       .  S
C2786      C2787   1.406       .  A
C2786      H2802   1.084       .  S
C2787      C2797   1.410       .  A
C2787      C2788   1.411       .  A
C2788      C2794   1.412       .  A
C2788      C2789   1.414   1_556  A
C2789      C2791   1.409       .  A
C2789      C2790   1.413       .  A
C2790      C2798   1.413       .  A
C2791      C2800   1.398       .  A
C2791      C2792   1.402       .  A
C2792      C2793   1.396   1_554  A
C2792      H2803   1.084       .  S
C2793      C2794   1.402       .  A
C2793      H2804   1.083       .  S
C2794      C2795   1.400       .  A
C2795      C2796   1.405       .  A
C2795      H2805   1.084       .  S
C2796      C2797   1.410       .  A
C2797      H2806   1.084       .  S
C2798      C2799   1.410       .  A
C2798      H2807   1.084       .  S
C2799      C2800   1.407       .  A
C2800      H2808   1.085       .  S
C2809      C2810   1.399       .  A
C2809      C2814   1.404       .  A
C2809      H2825   1.084       .  S
C2810      C2811   1.404       .  A
C2810      H2826   1.084       .  S
C2811      C2821   1.401       .  A
C2811      C2812   1.411       .  A
C2812      C2818   1.414       .  A
C2812      C2813   1.411       .  A
C2813      C2815   1.411       .  A
C2813      C2814   1.414       .  A
C2814      C2822   1.406       .  A
C2815      C2824   1.399       .  A
C2815      C2816   1.403       .  A
C2816      C2817   1.397       .  A
C2816      H2827   1.084       .  S
C2817      C2818   1.402       .  A
C2817      H2828   1.084       .  S
C2818      C2819   1.402       .  A
C2819      C2820   1.402       .  A
C2819      H2829   1.085       .  S
C2820      C2821   1.405       .  A
C2821      H2830   1.085       .  S
C2822      C2823   1.405       .  A
C2822      H2831   1.085       .  S
C2823      C2824   1.405       .  A
C2824      H2832   1.085       .  S
C2833      C2834   1.405       .  A
C2833      C2838   1.405       .  A
C2833      H2849   1.083       .  S
C2834      C2835   1.406       .  A
C2834      H2850   1.083       .  S
C2835      C2845   1.414       .  A
C2835      C2836   1.413       .  A
C2836      C2842   1.412       .  A
C2836      C2837   1.418       .  A
C2837      C2839   1.411       .  A
C2837      C2838   1.414       .  A
C2838      C2846   1.414       .  A
C2839      C2848   1.402       .  A
C2839      C2840   1.403       .  A
C2840      C2841   1.398       .  A
C2840      H2851   1.084       .  S
C2841      C2842   1.403       .  A
C2841      H2852   1.084       .  S
C2842      C2843   1.404       .  A
C2843      C2844   1.406       .  A
C2843      H2853   1.085       .  S
C2844      C2845   1.409       .  A
C2845      H2854   1.084       .  S
C2846      C2847   1.409       .  A
C2846      H2855   1.084       .  S
C2847      C2848   1.408       .  A
C2848      H2856   1.085       .  S
C2857      C2858   1.402       .  A
C2857      C2862   1.404       .  A
C2857      H2873   1.084       .  S
C2858      C2859   1.405       .  A
C2858      H2874   1.083       .  S
C2859      C2869   1.407       .  A
C2859      C2860   1.411       .  A
C2860      C2866   1.412       .  A
C2860      C2861   1.412       .  A
C2861      C2863   1.410       .  A
C2861      C2862   1.414       .  A
C2862      C2870   1.409       .  A
C2863      C2872   1.397       .  A
C2863      C2864   1.402       .  A
C2864      C2865   1.396       .  A
C2864      H2875   1.084       .  S
C2865      C2866   1.403       .  A
C2865      H2876   1.084       .  S
C2866      C2867   1.400       .  A
C2867      C2868   1.406       .  A
C2867      H2877   1.085       .  S
C2868      C2869   1.410       .  A
C2869      H2878   1.084       .  S
C2870      C2871   1.405       .  A
C2870      H2879   1.084       .  S
C2871      C2872   1.403       .  A
C2872      H2880   1.085       .  S
C2881      C2882   1.403       .  A
C2881      C2886   1.405       .  A
C2881      H2897   1.083       .  S
C2882      C2883   1.405       .  A
C2882      H2898   1.084       .  S
C2883      C2893   1.411       .  A
C2883      C2884   1.414       .  A
C2884      C2890   1.410       .  A
C2884      C2885   1.414       .  A
C2885      C2887   1.412       .  A
C2885      C2886   1.413       .  A
C2886      C2894   1.409       .  A
C2887      C2896   1.400       .  A
C2887      C2888   1.402       .  A
C2888      C2889   1.396       .  A
C2888      H2899   1.084       .  S
C2889      C2890   1.403       .  A
C2889      H2900   1.084       .  S
C2890      C2891   1.397       .  A
C2891      C2892   1.407       .  A
C2891      H2901   1.085       .  S
C2892      C2893   1.407       .  A
C2893      H2902   1.084       .  S
C2894      C2895   1.406       .  A
C2894      H2903   1.084       .  S
C2895      C2896   1.404       .  A
C2896      H2904   1.085       .  S
C2905      C2906   1.403       .  A
C2905      C2910   1.405       .  A
C2905      H2921   1.083       .  S
C2906      C2907   1.405       .  A
C2906      H2922   1.084       .  S
C2907      C2917   1.411       .  A
C2907      C2908   1.414       .  A
C2908      C2914   1.411       .  A
C2908      C2909   1.415       .  A
C2909      C2911   1.411       .  A
C2909      C2910   1.413       .  A
C2910      C2918   1.411       .  A
C2911      C2920   1.401       .  A
C2911      C2912   1.403       .  A
C2912      C2913   1.397       .  A
C2912      H2923   1.084       .  S
C2913      C2914   1.403       .  A
C2913      H2924   1.083       .  S
C2914      C2915   1.400       .  A
C2915      C2916   1.405       .  A
C2915      H2925   1.085       .  S
C2916      C2917   1.406       .  A
C2917      H2926   1.084       .  S
C2918      C2919   1.407       .  A
C2918      H2927   1.084       .  S
C2919      C2920   1.406       .  A
C2920      H2928   1.085       .  S
C2929      C2930   1.399       .  A
C2929      C2934   1.404       .  A
C2929      H2945   1.084       .  S
C2930      C2931   1.404       .  A
C2930      H2946   1.084       .  S
C2931      C2941   1.403       .  A
C2931      C2932   1.412       .  A
C2932      C2938   1.413       .  A
C2932      C2933   1.413       .  A
C2933      C2935   1.413       .  A
C2933      C2934   1.412       .  A
C2934      C2942   1.403       .  A
C2935      C2944   1.405       .  A
C2935      C2936   1.404       .  A
C2936      C2937   1.400       .  A
C2936      H2947   1.083       .  S
C2937      C2938   1.404       .  A
C2937      H2948   1.084       .  S
C2938      C2939   1.407       .  A
C2939      C2940   1.404       .  A
C2939      H2949   1.084       .  S
C2940      C2941   1.404       .  A
C2941      H2950   1.085       .  S
C2942      C2943   1.405       .  A
C2942      H2951   1.085       .  S
C2943      C2944   1.404       .  A
C2944      H2952   1.084       .  S
C2953      C2954   1.397       .  A
C2953      C2958   1.403       .  A
C2953      H2969   1.084       .  S
C2954      C2955   1.403       .  A
C2954      H2970   1.084       .  S
C2955      C2965   1.398       .  A
C2955      C2956   1.410       .  A
C2956      C2962   1.412       .  A
C2956      C2957   1.410       .  A
C2957      C2959   1.410       .  A
C2957      C2958   1.412       .  A
C2958      C2966   1.401       .  A
C2959      C2968   1.401       .  A
C2959      C2960   1.404       .  A
C2960      C2961   1.398       .  A
C2960      H2971   1.084       .  S
C2961      C2962   1.403       .  A
C2961      H2972   1.083       .  S
C2962      C2963   1.403       .  A
C2963      C2964   1.406       .  A
C2963      H2973   1.084       .  S
C2964      C2965   1.407       .  A
C2965      H2974   1.084       .  S
C2966      C2967   1.406       .  A
C2966      H2975   1.084       .  S
C2967      C2968   1.408       .  A
C2968      H2976   1.084       .  S
C2977      C2978   1.399       .  A
C2977      C2982   1.404       .  A
C2977      H2993   1.083       .  S
C2978      C2979   1.404       .  A
C2978      H2994   1.084       .  S
C2979      C2989   1.403       .  A
C2979      C2980   1.410       .  A
C2980      C2986   1.412       .  A
C2980      C2981   1.416       .  A
C2981      C2983   1.411       .  A
C2981      C2982   1.411       .  A
C2982      C2990   1.404       .  A
C2983      C2992   1.409       .  A
C2983      C2984   1.405       .  A
C2984      C2985   1.402       .  A
C2984      H2995   1.083       .  S
C2985      C2986   1.405       .  A
C2985      H2996   1.083       .  S
C2986      C2987   1.410       .  A
C2987      C2988   1.410       .  A
C2987      H2997   1.084       .  S
C2988      C2989   1.410       .  A
C2989      H2998   1.084       .  S
C2990      C2991   1.410       .  A
C2990      H2999   1.084       .  S
C2991      C2992   1.410       .  A
C2992      H3000   1.084       .  S
C3001      C3002   1.393       .  A
C3001      C3006   1.401       .  A
C3001      H3017   1.084       .  S
C3002      C3003   1.401       .  A
C3002      H3018   1.084       .  S
C3003      C3013   1.393       .  A
C3003      C3004   1.409       .  A
C3004      C3010   1.413       .  A
C3004      C3005   1.411       .  A
C3005      C3007   1.412       .  A
C3005      C3006   1.411       .  A
C3006      C3014   1.395       .  A
C3007      C3016   1.409       .  A
C3007      C3008   1.405       .  A
C3008      C3009   1.404       .  A
C3008      H3019   1.084       .  S
C3009      C3010   1.405       .  A
C3009      H3020   1.083       .  S
C3010      C3011   1.410       .  A
C3011      C3012   1.409       .  A
C3011      H3021   1.084       .  S
C3012      C3013   1.405       .  A
C3013      H3022   1.084       .  S
C3014      C3015   1.403       .  A
C3014      H3023   1.085       .  S
C3015      C3016   1.409       .  A
C3016      H3024   1.084       .  S
C3025      C3026   1.406       .  A
C3025      C3030   1.406       .  A
C3025      H3041   1.083       .  S
C3026      C3027   1.406       .  A
C3026      H3042   1.083       .  S
C3027      C3037   1.415       .  A
C3027      C3028   1.413       .  A
C3028      C3034   1.409       .  A
C3028      C3029   1.415       .  A
C3029      C3031   1.411       .  A
C3029      C3030   1.413       .  A
C3030      C3038   1.414       .  A
C3031      C3040   1.397       .  A
C3031      C3032   1.401       .  A
C3032      C3033   1.395       .  A
C3032      H3043   1.084       .  S
C3033      C3034   1.402       .  A
C3033      H3044   1.084       .  S
C3034      C3035   1.397       .  A
C3035      C3036   1.409       .  A
C3035      H3045   1.084       .  S
C3036      C3037   1.412       .  A
C3037      H3046   1.084       .  S
C3038      C3039   1.409       .  A
C3038      H3047   1.084       .  S
C3039      C3040   1.404       .  A
C3040      H3048   1.085       .  S
C3049      C3050   1.397       .  A
C3049      C3054   1.403       .  A
C3049      H3065   1.084       .  S
C3050      C3051   1.402       .  A
C3050      H3066   1.084       .  S
C3051      C3061   1.398       .  A
C3051      C3052   1.412       .  A
C3052      C3058   1.414       .  A
C3052      C3053   1.412       .  A
C3053      C3055   1.413       .  A
C3053      C3054   1.412       .  A
C3054      C3062   1.400       .  A
C3055      C3064   1.407       .  A
C3055      C3056   1.405       .  A
C3056      C3057   1.401       .  A
C3056      H3067   1.083       .  S
C3057      C3058   1.404       .  A
C3057      H3068   1.084       .  S
C3058      C3059   1.407       .  A
C3059      C3060   1.404       .  A
C3059      H3069   1.084       .  S
C3060      C3061   1.401       .  A
C3061      H3070   1.085       .  S
C3062      C3063   1.403       .  A
C3062      H3071   1.085       .  S
C3063      C3064   1.405       .  A
C3064      H3072   1.084       .  S
C3073      C3074   1.397       .  A
C3073      C3078   1.403       .  A
C3073      H3089   1.083       .  S
C3074      C3075   1.403       .  A
C3074      H3090   1.084       .  S
C3075      C3085   1.399       .  A
C3075      C3076   1.410       .  A
C3076      C3082   1.413       .  A
C3076      C3077   1.414       .  A
C3077      C3079   1.412       .  A
C3077      C3078   1.411       .  A
C3078      C3086   1.401       .  A
C3079      C3088   1.409       .  A
C3079      C3080   1.405       .  A
C3080      C3081   1.403       .  A
C3080      H3091   1.084       .  S
C3081      C3082   1.405       .  A
C3081      H3092   1.083       .  S
C3082      C3083   1.410       .  A
C3083      C3084   1.407       .  A
C3083      H3093   1.084       .  S
C3084      C3085   1.408       .  A
C3085      H3094   1.085       .  S
C3086      C3087   1.410       .  A
C3086      H3095   1.084       .  S
C3087      C3088   1.408       .  A
C3088      H3096   1.084       .  S
C3097      C3098   1.398       .  A
C3097      C3102   1.403       .  A
C3097      H3113   1.084       .  S
C3098      C3099   1.403       .  A
C3098      H3114   1.084       .  S
C3099      C3109   1.402       .  A
C3099      C3100   1.413       .  A
C3100      C3106   1.410       .  A
C3100      C3101   1.409       .  A
C3101      C3103   1.412       .  A
C3101      C3102   1.410       .  A
C3102      C3110   1.399       .  A
C3103      C3112   1.401       .  A
C3103      C3104   1.403       .  A
C3104      C3105   1.398       .  A
C3104      H3115   1.084       .  S
C3105      C3106   1.404       .  A
C3105      H3116   1.084       .  S
C3106      C3107   1.399       .  A
C3107      C3108   1.408       .  A
C3107      H3117   1.084       .  S
C3108      C3109   1.405       .  A
C3109      H3118   1.084       .  S
C3110      C3111   1.406       .  A
C3110      H3119   1.084       .  S
C3111      C3112   1.406       .  A
C3112      H3120   1.084       .  S
C3121      C3122   1.400       .  A
C3121      C3126   1.405       .  A
C3121      H3137   1.083       .  S
C3122      C3123   1.404       .  A
C3122      H3138   1.084       .  S
C3123      C3133   1.406       .  A
C3123      C3124   1.414       .  A
C3124      C3130   1.411       .  A
C3124      C3125   1.411       .  A
C3125      C3127   1.412       .  A
C3125      C3126   1.411       .  A
C3126      C3134   1.404       .  A
C3127      C3136   1.400       .  A
C3127      C3128   1.402       .  A
C3128      C3129   1.397       .  A
C3128      H3139   1.084       .  S
C3129      C3130   1.403       .  A
C3129      H3140   1.083       .  S
C3130      C3131   1.398       .  A
C3131      C3132   1.402       .  A
C3131      H3141   1.085       .  S
C3132      C3133   1.403       .  A
C3133      H3142   1.085       .  S
C3134      C3135   1.408       .  A
C3134      H3143   1.084       .  S
C3135      C3136   1.405       .  A
C3136      H3144   1.085       .  S
C3145      C3146   1.404   1_655  A
C3145      C3150   1.405       .  A
C3145      H3161   1.083       .  S
C3146      C3147   1.406       .  A
C3146      H3162   1.084       .  S
C3147      C3157   1.410       .  A
C3147      C3148   1.411       .  A
C3148      C3154   1.411       .  A
C3148      C3149   1.412   1_455  A
C3149      C3151   1.409       .  A
C3149      C3150   1.413       .  A
C3150      C3158   1.411       .  A
C3151      C3160   1.395       .  A
C3151      C3152   1.402       .  A
C3152      C3153   1.394   1_655  A
C3152      H3163   1.084       .  S
C3153      C3154   1.402       .  A
C3153      H3164   1.083       .  S
C3154      C3155   1.397       .  A
C3155      C3156   1.406       .  A
C3155      H3165   1.084       .  S
C3156      C3157   1.411       .  A
C3157      H3166   1.084       .  S
C3158      C3159   1.410       .  A
C3158      H3167   1.084       .  S
C3159      C3160   1.407       .  A
C3160      H3168   1.084       .  S
C3169      C3170   1.400       .  A
C3169      C3174   1.404       .  A
C3169      H3185   1.084       .  S
C3170      C3171   1.404       .  A
C3170      H3186   1.084       .  S
C3171      C3181   1.404       .  A
C3171      C3172   1.412       .  A
C3172      C3178   1.413       .  A
C3172      C3173   1.412       .  A
C3173      C3175   1.411       .  A
C3173      C3174   1.414       .  A
C3174      C3182   1.407       .  A
C3175      C3184   1.400       .  A
C3175      C3176   1.403       .  A
C3176      C3177   1.398       .  A
C3176      H3187   1.084       .  S
C3177      C3178   1.403       .  A
C3177      H3188   1.083       .  S
C3178      C3179   1.402       .  A
C3179      C3180   1.403       .  A
C3179      H3189   1.085       .  S
C3180      C3181   1.406       .  A
C3181      H3190   1.085       .  S
C3182      C3183   1.405       .  A
C3182      H3191   1.085       .  S
C3183      C3184   1.406       .  A
C3184      H3192   1.085       .  S
C3193      C3194   1.401       .  A
C3193      C3198   1.404       .  A
C3193      H3209   1.084       .  S
C3194      C3195   1.404       .  A
C3194      H3210   1.083       .  S
C3195      C3205   1.405       .  A
C3195      C3196   1.413       .  A
C3196      C3202   1.413       .  A
C3196      C3197   1.411       .  A
C3197      C3199   1.411       .  A
C3197      C3198   1.414       .  A
C3198      C3206   1.407       .  A
C3199      C3208   1.397       .  A
C3199      C3200   1.403       .  A
C3200      C3201   1.396       .  A
C3200      H3211   1.084       .  S
C3201      C3202   1.402       .  A
C3201      H3212   1.084       .  S
C3202      C3203   1.399       .  A
C3203      C3204   1.402       .  A
C3203      H3213   1.085       .  S
C3204      C3205   1.403       .  A
C3205      H3214   1.084       .  S
C3206      C3207   1.405       .  A
C3206      H3215   1.084       .  S
C3207      C3208   1.405       .  A
C3208      H3216   1.085       .  S
C3217      C3218   1.397   1_554  A
C3217      C3222   1.403       .  A
C3217      H3233   1.084       .  S
C3218      C3219   1.403       .  A
C3218      H3234   1.083       .  S
C3219      C3229   1.400       .  A
C3219      C3220   1.410       .  A
C3220      C3226   1.413       .  A
C3220      C3221   1.414   1_556  A
C3221      C3223   1.413       .  A
C3221      C3222   1.411       .  A
C3222      C3230   1.400       .  A
C3223      C3232   1.411       .  A
C3223      C3224   1.405       .  A
C3224      C3225   1.403   1_554  A
C3224      H3235   1.083       .  S
C3225      C3226   1.405       .  A
C3225      H3236   1.084       .  S
C3226      C3227   1.411       .  A
C3227      C3228   1.409       .  A
C3227      H3237   1.084       .  S
C3228      C3229   1.409       .  A
C3229      H3238   1.084       .  S
C3230      C3231   1.407       .  A
C3230      H3239   1.085       .  S
C3231      C3232   1.408       .  A
C3232      H3240   1.084       .  S
C3241      C3242   1.396   1_455  A
C3241      C3246   1.402       .  A
C3241      H3257   1.084       .  S
C3242      C3243   1.403       .  A
C3242      H3258   1.083       .  S
C3243      C3253   1.398       .  A
C3243      C3244   1.410       .  A
C3244      C3250   1.413       .  A
C3244      C3245   1.415   1_655  A
C3245      C3247   1.411       .  A
C3245      C3246   1.411       .  A
C3246      C3254   1.400       .  A
C3247      C3256   1.411       .  A
C3247      C3248   1.406       .  A
C3248      C3249   1.404   1_455  A
C3248      H3259   1.083       .  S
C3249      C3250   1.406       .  A
C3249      H3260   1.084       .  S
C3250      C3251   1.413       .  A
C3251      C3252   1.410       .  A
C3251      H3261   1.084       .  S
C3252      C3253   1.407       .  A
C3253      H3262   1.084       .  S
C3254      C3255   1.406       .  A
C3254      H3263   1.085       .  S
C3255      C3256   1.411       .  A
C3256      H3264   1.084       .  S
C3265      C3266   1.401       .  A
C3265      C3270   1.404       .  A
C3265      H3281   1.084       .  S
C3266      C3267   1.404       .  A
C3266      H3282   1.083       .  S
C3267      C3277   1.409       .  A
C3267      C3268   1.414       .  A
C3268      C3274   1.411       .  A
C3268      C3269   1.416       .  A
C3269      C3271   1.413       .  A
C3269      C3270   1.412       .  A
C3270      C3278   1.407       .  A
C3271      C3280   1.406       .  A
C3271      C3272   1.404       .  A
C3272      C3273   1.400       .  A
C3272      H3283   1.083       .  S
C3273      C3274   1.404       .  A
C3273      H3284   1.084       .  S
C3274      C3275   1.403       .  A
C3275      C3276   1.407       .  A
C3275      H3285   1.085       .  S
C3276      C3277   1.406       .  A
C3277      H3286   1.084       .  S
C3278      C3279   1.405       .  A
C3278      H3287   1.085       .  S
C3279      C3280   1.405       .  A
C3280      H3288   1.084       .  S
C3289      C3290   1.397       .  A
C3289      C3294   1.403       .  A
C3289      H3305   1.084       .  S
C3290      C3291   1.403       .  A
C3290      H3306   1.084       .  S
C3291      C3301   1.401       .  A
C3291      C3292   1.411       .  A
C3292      C3298   1.414       .  A
C3292      C3293   1.415       .  A
C3293      C3295   1.413       .  A
C3293      C3294   1.412       .  A
C3294      C3302   1.402       .  A
C3295      C3304   1.410       .  A
C3295      C3296   1.405       .  A
C3296      C3297   1.403       .  A
C3296      H3307   1.084       .  S
C3297      C3298   1.405       .  A
C3297      H3308   1.083       .  S
C3298      C3299   1.411       .  A
C3299      C3300   1.407       .  A
C3299      H3309   1.084       .  S
C3300      C3301   1.405       .  A
C3301      H3310   1.085       .  S
C3302      C3303   1.403       .  A
C3302      H3311   1.085       .  S
C3303      C3304   1.407       .  A
C3304      H3312   1.084       .  S
C3313      C3314   1.396       .  A
C3313      C3318   1.402       .  A
C3313      H3329   1.084       .  S
C3314      C3315   1.402       .  A
C3314      H3330   1.084       .  S
C3315      C3325   1.398       .  A
C3315      C3316   1.412       .  A
C3316      C3322   1.413       .  A
C3316      C3317   1.411       .  A
C3317      C3319   1.414       .  A
C3317      C3318   1.411       .  A
C3318      C3326   1.397       .  A
C3319      C3328   1.407       .  A
C3319      C3320   1.404       .  A
C3320      C3321   1.401       .  A
C3320      H3331   1.083       .  S
C3321      C3322   1.404       .  A
C3321      H3332   1.083       .  S
C3322      C3323   1.407       .  A
C3323      C3324   1.404       .  A
C3323      H3333   1.084       .  S
C3324      C3325   1.402       .  A
C3325      H3334   1.085       .  S
C3326      C3327   1.403       .  A
C3326      H3335   1.085       .  S
C3327      C3328   1.404       .  A
C3328      H3336   1.084       .  S
C3337      C3338   1.402   1_554  A
C3337      C3342   1.405       .  A
C3337      H3353   1.084       .  S
C3338      C3339   1.405       .  A
C3338      H3354   1.084       .  S
C3339      C3349   1.409       .  A
C3339      C3340   1.413       .  A
C3340      C3346   1.409       .  A
C3340      C3341   1.414   1_556  A
C3341      C3343   1.412       .  A
C3341      C3342   1.410       .  A
C3342      C3350   1.406       .  A
C3343      C3352   1.403       .  A
C3343      C3344   1.403       .  A
C3344      C3345   1.398   1_554  A
C3344      H3355   1.084       .  S
C3345      C3346   1.403       .  A
C3345      H3356   1.083       .  S
C3346      C3347   1.400       .  A
C3347      C3348   1.409       .  A
C3347      H3357   1.084       .  S
C3348      C3349   1.409       .  A
C3349      H3358   1.084       .  S
C3350      C3351   1.411       .  A
C3350      H3359   1.084       .  S
C3351      C3352   1.407       .  A
C3352      H3360   1.084       .  S
C3361      C3362   1.399       .  A
C3361      C3366   1.403       .  A
C3361      H3377   1.084       .  S
C3362      C3363   1.404       .  A
C3362      H3378   1.084       .  S
C3363      C3373   1.403       .  A
C3363      C3364   1.412       .  A
C3364      C3370   1.412       .  A
C3364      C3365   1.411       .  A
C3365      C3367   1.413       .  A
C3365      C3366   1.412       .  A
C3366      C3374   1.401       .  A
C3367      C3376   1.402       .  A
C3367      C3368   1.402       .  A
C3368      C3369   1.398       .  A
C3368      H3379   1.084       .  S
C3369      C3370   1.403       .  A
C3369      H3380   1.084       .  S
C3370      C3371   1.402       .  A
C3371      C3372   1.406       .  A
C3371      H3381   1.084       .  S
C3372      C3373   1.408       .  A
C3373      H3382   1.084       .  S
C3374      C3375   1.404       .  A
C3374      H3383   1.085       .  S
C3375      C3376   1.401       .  A
C3376      H3384   1.085       .  S
C3385      C3386   1.401       .  A
C3385      C3390   1.405       .  A
C3385      H3401   1.084       .  S
C3386      C3387   1.405       .  A
C3386      H3402   1.083       .  S
C3387      C3397   1.407       .  A
C3387      C3388   1.412       .  A
C3388      C3394   1.411       .  A
C3388      C3389   1.414       .  A
C3389      C3391   1.411       .  A
C3389      C3390   1.412       .  A
C3390      C3398   1.407       .  A
C3391      C3400   1.403       .  A
C3391      C3392   1.403       .  A
C3392      C3393   1.398       .  A
C3392      H3403   1.084       .  S
C3393      C3394   1.403       .  A
C3393      H3404   1.084       .  S
C3394      C3395   1.403       .  A
C3395      C3396   1.408       .  A
C3395      H3405   1.084       .  S
C3396      C3397   1.410       .  A
C3397      H3406   1.084       .  S
C3398      C3399   1.410       .  A
C3398      H3407   1.084       .  S
C3399      C3400   1.408       .  A
C3400      H3408   1.084       .  S
C3409      C3410   1.398       .  A
C3409      C3414   1.403       .  A
C3409      H3425   1.083       .  S
C3410      C3411   1.404       .  A
C3410      H3426   1.084       .  S
C3411      C3421   1.400       .  A
C3411      C3412   1.410       .  A
C3412      C3418   1.415       .  A
C3412      C3413   1.413       .  A
C3413      C3415   1.411       .  A
C3413      C3414   1.414       .  A
C3414      C3422   1.404       .  A
C3415      C3424   1.404       .  A
C3415      C3416   1.404       .  A
C3416      C3417   1.400       .  A
C3416      H3427   1.084       .  S
C3417      C3418   1.404       .  A
C3417      H3428   1.083       .  S
C3418      C3419   1.409       .  A
C3419      C3420   1.405       .  A
C3419      H3429   1.084       .  S
C3420      C3421   1.407       .  A
C3421      H3430   1.085       .  S
C3422      C3423   1.403       .  A
C3422      H3431   1.085       .  S
C3423      C3424   1.406       .  A
C3424      H3432   1.085       .  S
C3433      C3434   1.398       .  A
C3433      C3438   1.403       .  A
C3433      H3449   1.084       .  S
C3434      C3435   1.403       .  A
C3434      H3450   1.084       .  S
C3435      C3445   1.402       .  A
C3435      C3436   1.412       .  A
C3436      C3442   1.413       .  A
C3436      C3437   1.413       .  A
C3437      C3439   1.413       .  A
C3437      C3438   1.412       .  A
C3438      C3446   1.402       .  A
C3439      C3448   1.407       .  A
C3439      C3440   1.404       .  A
C3440      C3441   1.401       .  A
C3440      H3451   1.083       .  S
C3441      C3442   1.404       .  A
C3441      H3452   1.084       .  S
C3442      C3443   1.407       .  A
C3443      C3444   1.404       .  A
C3443      H3453   1.085       .  S
C3444      C3445   1.403       .  A
C3445      H3454   1.085       .  S
C3446      C3447   1.404       .  A
C3446      H3455   1.085       .  S
C3447      C3448   1.405       .  A
C3448      H3456   1.084       .  S
C3457      C3458   1.398       .  A
C3457      C3462   1.403       .  A
C3457      H3473   1.084       .  S
C3458      C3459   1.403       .  A
C3458      H3474   1.083       .  S
C3459      C3469   1.405       .  A
C3459      C3460   1.413       .  A
C3460      C3466   1.411       .  A
C3460      C3461   1.417       .  A
C3461      C3463   1.414       .  A
C3461      C3462   1.410       .  A
C3462      C3470   1.402       .  A
C3463      C3472   1.413       .  A
C3463      C3464   1.406       .  A
C3464      C3465   1.404       .  A
C3464      H3475   1.083       .  S
C3465      C3466   1.406       .  A
C3465      H3476   1.084       .  S
C3466      C3467   1.410       .  A
C3467      C3468   1.410       .  A
C3467      H3477   1.084       .  S
C3468      C3469   1.406       .  A
C3469      H3478   1.084       .  S
C3470      C3471   1.408       .  A
C3470      H3479   1.085       .  S
C3471      C3472   1.410       .  A
C3472      H3480   1.084       .  S
C3481      C3482   1.403       .  A
C3481      C3486   1.405       .  A
C3481      H3497   1.083       .  S
C3482      C3483   1.405       .  A
C3482      H3498   1.083       .  S
C3483      C3493   1.411       .  A
C3483      C3484   1.412       .  A
C3484      C3490   1.411       .  A
C3484      C3485   1.416       .  A
C3485      C3487   1.410       .  A
C3485      C3486   1.412       .  A
C3486      C3494   1.412       .  A
C3487      C3496   1.403       .  A
C3487      C3488   1.404       .  A
C3488      C3489   1.398       .  A
C3488      H3499   1.084       .  S
C3489      C3490   1.403       .  A
C3489      H3500   1.084       .  S
C3490      C3491   1.403       .  A
C3491      C3492   1.410       .  A
C3491      H3501   1.084       .  S
C3492      C3493   1.410       .  A
C3493      H3502   1.084       .  S
C3494      C3495   1.410       .  A
C3494      H3503   1.084       .  S
C3495      C3496   1.412       .  A
C3496      H3504   1.084       .  S
C3505      C3506   1.400       .  A
C3505      C3510   1.404       .  A
C3505      H3521   1.084       .  S
C3506      C3507   1.404       .  A
C3506      H3522   1.083       .  S
C3507      C3517   1.405       .  A
C3507      C3508   1.411       .  A
C3508      C3514   1.412       .  A
C3508      C3509   1.418       .  A
C3509      C3511   1.412       .  A
C3509      C3510   1.411       .  A
C3510      C3518   1.405       .  A
C3511      C3520   1.412       .  A
C3511      C3512   1.405       .  A
C3512      C3513   1.404       .  A
C3512      H3523   1.083       .  S
C3513      C3514   1.405       .  A
C3513      H3524   1.083       .  S
C3514      C3515   1.412       .  A
C3515      C3516   1.410       .  A
C3515      H3525   1.084       .  S
C3516      C3517   1.410       .  A
C3517      H3526   1.084       .  S
C3518      C3519   1.410       .  A
C3518      H3527   1.084       .  S
C3519      C3520   1.410       .  A
C3520      H3528   1.084       .  S
C3529      C3530   1.399       .  A
C3529      C3534   1.404       .  A
C3529      H3545   1.084       .  S
C3530      C3531   1.403       .  A
C3530      H3546   1.083       .  S
C3531      C3541   1.404       .  A
C3531      C3532   1.414       .  A
C3532      C3538   1.411       .  A
C3532      C3533   1.409       .  A
C3533      C3535   1.413       .  A
C3533      C3534   1.410       .  A
C3534      C3542   1.401       .  A
C3535      C3544   1.400       .  A
C3535      C3536   1.402       .  A
C3536      C3537   1.396       .  A
C3536      H3547   1.084       .  S
C3537      C3538   1.402       .  A
C3537      H3548   1.084       .  S
C3538      C3539   1.396       .  A
C3539      C3540   1.402       .  A
C3539      H3549   1.085       .  S
C3540      C3541   1.402       .  A
C3541      H3550   1.084       .  S
C3542      C3543   1.409       .  A
C3542      H3551   1.084       .  S
C3543      C3544   1.404       .  A
C3544      H3552   1.084       .  S
C3553      C3554   1.403       .  A
C3553      C3558   1.405       .  A
C3553      H3569   1.083       .  S
C3554      C3555   1.405       .  A
C3554      H3570   1.084       .  S
C3555      C3565   1.411       .  A
C3555      C3556   1.413       .  A
C3556      C3562   1.409       .  A
C3556      C3557   1.414       .  A
C3557      C3559   1.411       .  A
C3557      C3558   1.412       .  A
C3558      C3566   1.410       .  A
C3559      C3568   1.398       .  A
C3559      C3560   1.402       .  A
C3560      C3561   1.395       .  A
C3560      H3571   1.084       .  S
C3561      C3562   1.403       .  A
C3561      H3572   1.083       .  S
C3562      C3563   1.398       .  A
C3563      C3564   1.410       .  A
C3563      H3573   1.084       .  S
C3564      C3565   1.409       .  A
C3565      H3574   1.084       .  S
C3566      C3567   1.411       .  A
C3566      H3575   1.084       .  S
C3567      C3568   1.407       .  A
C3568      H3576   1.084       .  S
C3577      C3578   1.400       .  A
C3577      C3582   1.404       .  A
C3577      H3593   1.083       .  S
C3578      C3579   1.404       .  A
C3578      H3594   1.084       .  S
C3579      C3589   1.403       .  A
C3579      C3580   1.411       .  A
C3580      C3586   1.412       .  A
C3580      C3581   1.411       .  A
C3581      C3583   1.410       .  A
C3581      C3582   1.412       .  A
C3582      C3590   1.405       .  A
C3583      C3592   1.398       .  A
C3583      C3584   1.402       .  A
C3584      C3585   1.396       .  A
C3584      H3595   1.084       .  S
C3585      C3586   1.402       .  A
C3585      H3596   1.083       .  S
C3586      C3587   1.400       .  A
C3587      C3588   1.405       .  A
C3587      H3597   1.084       .  S
C3588      C3589   1.409       .  A
C3589      H3598   1.085       .  S
C3590      C3591   1.409       .  A
C3590      H3599   1.084       .  S
C3591      C3592   1.406       .  A
C3592      H3600   1.084       .  S
C3601      C3602   1.399       .  A
C3601      C3606   1.403       .  A
C3601      H3617   1.083       .  S
C3602      C3603   1.403       .  A
C3602      H3618   1.083       .  S
C3603      C3613   1.406       .  A
C3603      C3604   1.414       .  A
C3604      C3610   1.410       .  A
C3604      C3605   1.411       .  A
C3605      C3607   1.412       .  A
C3605      C3606   1.412       .  A
C3606      C3614   1.403       .  A
C3607      C3616   1.401       .  A
C3607      C3608   1.403       .  A
C3608      C3609   1.398       .  A
C3608      H3619   1.084       .  S
C3609      C3610   1.404       .  A
C3609      H3620   1.083       .  S
C3610      C3611   1.400       .  A
C3611      C3612   1.407       .  A
C3611      H3621   1.085       .  S
C3612      C3613   1.402       .  A
C3613      H3622   1.084       .  S
C3614      C3615   1.402       .  A
C3614      H3623   1.084       .  S
C3615      C3616   1.405       .  A
C3616      H3624   1.085       .  S
C3625      C3626   1.406   1_554  A
C3625      C3630   1.407       .  A
C3625      H3641   1.083       .  S
C3626      C3627   1.407       .  A
C3626      H3642   1.083       .  S
C3627      C3637   1.416       .  A
C3627      C3628   1.412       .  A
C3628      C3634   1.410       .  A
C3628      C3629   1.417   1_556  A
C3629      C3631   1.410       .  A
C3629      C3630   1.412       .  A
C3630      C3638   1.415       .  A
C3631      C3640   1.399       .  A
C3631      C3632   1.402       .  A
C3632      C3633   1.396   1_554  A
C3632      H3643   1.084       .  S
C3633      C3634   1.403       .  A
C3633      H3644   1.083       .  S
C3634      C3635   1.400       .  A
C3635      C3636   1.410       .  A
C3635      H3645   1.084       .  S
C3636      C3637   1.413       .  A
C3637      H3646   1.084       .  S
C3638      C3639   1.413       .  A
C3638      H3647   1.084       .  S
C3639      C3640   1.408       .  A
C3640      H3648   1.084       .  S
C3649      C3650   1.403       .  A
C3649      C3654   1.405       .  A
C3649      H3665   1.083       .  S
C3650      C3651   1.405       .  A
C3650      H3666   1.084       .  S
C3651      C3661   1.412       .  A
C3651      C3652   1.414       .  A
C3652      C3658   1.411       .  A
C3652      C3653   1.416       .  A
C3653      C3655   1.413       .  A
C3653      C3654   1.412       .  A
C3654      C3662   1.410       .  A
C3655      C3664   1.404       .  A
C3655      C3656   1.403       .  A
C3656      C3657   1.398       .  A
C3656      H3667   1.083       .  S
C3657      C3658   1.403       .  A
C3657      H3668   1.084       .  S
C3658      C3659   1.401       .  A
C3659      C3660   1.406       .  A
C3659      H3669   1.085       .  S
C3660      C3661   1.407       .  A
C3661      H3670   1.084       .  S
C3662      C3663   1.407       .  A
C3662      H3671   1.084       .  S
C3663      C3664   1.404       .  A
C3664      H3672   1.085       .  S
C3673      C3674   1.402       .  A
C3673      C3678   1.405       .  A
C3673      H3689   1.084       .  S
C3674      C3675   1.405       .  A
C3674      H3690   1.083       .  S
C3675      C3685   1.409       .  A
C3675      C3676   1.413       .  A
C3676      C3682   1.413       .  A
C3676      C3677   1.416       .  A
C3677      C3679   1.412       .  A
C3677      C3678   1.413       .  A
C3678      C3686   1.410       .  A
C3679      C3688   1.405       .  A
C3679      C3680   1.404       .  A
C3680      C3681   1.400       .  A
C3680      H3691   1.083       .  S
C3681      C3682   1.404       .  A
C3681      H3692   1.084       .  S
C3682      C3683   1.405       .  A
C3683      C3684   1.405       .  A
C3683      H3693   1.085       .  S
C3684      C3685   1.406       .  A
C3685      H3694   1.084       .  S
C3686      C3687   1.407       .  A
C3686      H3695   1.085       .  S
C3687      C3688   1.406       .  A
C3688      H3696   1.085       .  S
C3697      C3698   1.397   1_554  A
C3697      C3702   1.402       .  A
C3697      H3713   1.083       .  S
C3698      C3699   1.403       .  A
C3698      H3714   1.084       .  S
C3699      C3709   1.398       .  A
C3699      C3700   1.409       .  A
C3700      C3706   1.413       .  A
C3700      C3701   1.415   1_556  A
C3701      C3703   1.411       .  A
C3701      C3702   1.412       .  A
C3702      C3710   1.402       .  A
C3703      C3712   1.410       .  A
C3703      C3704   1.406       .  A
C3704      C3705   1.404   1_554  A
C3704      H3715   1.083       .  S
C3705      C3706   1.405       .  A
C3705      H3716   1.083       .  S
C3706      C3707   1.413       .  A
C3707      C3708   1.410       .  A
C3707      H3717   1.084       .  S
C3708      C3709   1.408       .  A
C3709      H3718   1.084       .  S
C3710      C3711   1.406       .  A
C3710      H3719   1.084       .  S
C3711      C3712   1.410       .  A
C3712      H3720   1.084       .  S
C3721      C3722   1.396       .  A
C3721      C3726   1.402   1_565  A
C3721      H3737   1.084   1_565  S
C3722      C3723   1.402       .  A
C3722      H3738   1.083       .  S
C3723      C3733   1.398       .  A
C3723      C3724   1.410       .  A
C3724      C3730   1.414       .  A
C3724      C3725   1.414   1_565  A
C3725      C3727   1.411       .  A
C3725      C3726   1.411       .  A
C3726      C3734   1.400       .  A
C3727      C3736   1.411       .  A
C3727      C3728   1.406       .  A
C3728      C3729   1.404   1_545  A
C3728      H3739   1.083       .  S
C3729      C3730   1.405       .  A
C3729      H3740   1.083       .  S
C3730      C3731   1.412       .  A
C3731      C3732   1.408       .  A
C3731      H3741   1.084       .  S
C3732      C3733   1.406       .  A
C3733      H3742   1.084       .  S
C3734      C3735   1.408       .  A
C3734      H3743   1.084       .  S
C3735      C3736   1.411       .  A
C3736      H3744   1.084       .  S
C3745      C3746   1.398       .  A
C3745      C3750   1.403       .  A
C3745      H3761   1.083       .  S
C3746      C3747   1.403       .  A
C3746      H3762   1.084       .  S
C3747      C3757   1.402       .  A
C3747      C3748   1.412       .  A
C3748      C3754   1.411       .  A
C3748      C3749   1.413       .  A
C3749      C3751   1.414       .  A
C3749      C3750   1.410       .  A
C3750      C3758   1.399       .  A
C3751      C3760   1.409       .  A
C3751      C3752   1.404       .  A
C3752      C3753   1.401       .  A
C3752      H3763   1.084       .  S
C3753      C3754   1.405       .  A
C3753      H3764   1.083       .  S
C3754      C3755   1.406       .  A
C3755      C3756   1.409       .  A
C3755      H3765   1.084       .  S
C3756      C3757   1.408       .  A
C3757      H3766   1.085       .  S
C3758      C3759   1.406       .  A
C3758      H3767   1.085       .  S
C3759      C3760   1.405       .  A
C3760      H3768   1.084       .  S
C3769      C3770   1.397       .  A
C3769      C3774   1.403       .  A
C3769      H3785   1.084       .  S
C3770      C3771   1.403       .  A
C3770      H3786   1.083       .  S
C3771      C3781   1.402       .  A
C3771      C3772   1.413       .  A
C3772      C3778   1.412       .  A
C3772      C3773   1.415       .  A
C3773      C3775   1.415       .  A
C3773      C3774   1.410       .  A
C3774      C3782   1.398       .  A
C3775      C3784   1.413       .  A
C3775      C3776   1.405       .  A
C3776      C3777   1.403       .  A
C3776      H3787   1.084       .  S
C3777      C3778   1.405       .  A
C3777      H3788   1.083       .  S
C3778      C3779   1.410       .  A
C3779      C3780   1.406       .  A
C3779      H3789   1.084       .  S
C3780      C3781   1.404       .  A
C3781      H3790   1.085       .  S
C3782      C3783   1.407       .  A
C3782      H3791   1.086       .  S
C3783      C3784   1.407       .  A
C3784      H3792   1.084       .  S
C3793      C3794   1.400       .  A
C3793      C3798   1.404       .  A
C3793      H3809   1.084       .  S
C3794      C3795   1.404       .  A
C3794      H3810   1.084       .  S
C3795      C3805   1.406       .  A
C3795      C3796   1.414       .  A
C3796      C3802   1.411       .  A
C3796      C3797   1.414       .  A
C3797      C3799   1.414       .  A
C3797      C3798   1.412       .  A
C3798      C3806   1.403       .  A
C3799      C3808   1.405       .  A
C3799      C3800   1.403       .  A
C3800      C3801   1.400       .  A
C3800      H3811   1.084       .  S
C3801      C3802   1.404       .  A
C3801      H3812   1.083       .  S
C3802      C3803   1.403       .  A
C3803      C3804   1.408       .  A
C3803      H3813   1.085       .  S
C3804      C3805   1.405       .  A
C3805      H3814   1.085       .  S
C3806      C3807   1.405       .  A
C3806      H3815   1.085       .  S
C3807      C3808   1.404       .  A
C3808      H3816   1.085       .  S
C3817      C3818   1.395   1_545  A
C3817      C3822   1.402       .  A
C3817      H3833   1.084       .  S
C3818      C3819   1.401       .  A
C3818      H3834   1.083       .  S
C3819      C3829   1.398       .  A
C3819      C3820   1.411       .  A
C3820      C3826   1.412       .  A
C3820      C3821   1.414   1_565  A
C3821      C3823   1.412       .  A
C3821      C3822   1.410       .  A
C3822      C3830   1.398       .  A
C3823      C3832   1.413       .  A
C3823      C3824   1.406       .  A
C3824      C3825   1.405   1_545  A
C3824      H3835   1.083       .  S
C3825      C3826   1.406       .  A
C3825      H3836   1.084       .  S
C3826      C3827   1.412       .  A
C3827      C3828   1.409       .  A
C3827      H3837   1.084       .  S
C3828      C3829   1.403       .  A
C3829      H3838   1.084       .  S
C3830      C3831   1.407       .  A
C3830      H3839   1.084       .  S
C3831      C3832   1.412       .  A
C3832      H3840   1.083       .  S
C3841      C3842   1.397       .  A
C3841      C3846   1.403       .  A
C3841      H3857   1.084       .  S
C3842      C3843   1.402       .  A
C3842      H3858   1.084       .  S
C3843      C3853   1.402       .  A
C3843      C3844   1.413       .  A
C3844      C3850   1.412       .  A
C3844      C3845   1.416       .  A
C3845      C3847   1.414       .  A
C3845      C3846   1.410       .  A
C3846      C3854   1.400       .  A
C3847      C3856   1.414       .  A
C3847      C3848   1.405       .  A
C3848      C3849   1.404       .  A
C3848      H3859   1.084       .  S
C3849      C3850   1.406       .  A
C3849      H3860   1.083       .  S
C3850      C3851   1.411       .  A
C3851      C3852   1.407       .  A
C3851      H3861   1.084       .  S
C3852      C3853   1.403       .  A
C3853      H3862   1.085       .  S
C3854      C3855   1.407       .  A
C3854      H3863   1.085       .  S
C3855      C3856   1.409       .  A
C3856      H3864   1.084       .  S
C3865      C3866   1.396       .  A
C3865      C3870   1.403       .  A
C3865      H3881   1.084       .  S
C3866      C3867   1.403       .  A
C3866      H3882   1.084       .  S
C3867      C3877   1.400       .  A
C3867      C3868   1.412       .  A
C3868      C3874   1.413       .  A
C3868      C3869   1.414       .  A
C3869      C3871   1.414       .  A
C3869      C3870   1.411       .  A
C3870      C3878   1.399       .  A
C3871      C3880   1.411       .  A
C3871      C3872   1.405       .  A
C3872      C3873   1.403       .  A
C3872      H3883   1.083       .  S
C3873      C3874   1.405       .  A
C3873      H3884   1.084       .  S
C3874      C3875   1.410       .  A
C3875      C3876   1.406       .  A
C3875      H3885   1.084       .  S
C3876      C3877   1.404       .  A
C3877      H3886   1.085       .  S
C3878      C3879   1.406       .  A
C3878      H3887   1.085       .  S
C3879      C3880   1.407       .  A
C3880      H3888   1.084       .  S
C3889      C3890   1.401       .  A
C3889      C3894   1.404       .  A
C3889      H3905   1.084       .  S
C3890      C3891   1.404       .  A
C3890      H3906   1.083       .  S
C3891      C3901   1.407       .  A
C3891      C3892   1.412       .  A
C3892      C3898   1.410       .  A
C3892      C3893   1.413       .  A
C3893      C3895   1.412       .  A
C3893      C3894   1.411       .  A
C3894      C3902   1.405       .  A
C3895      C3904   1.403       .  A
C3895      C3896   1.403       .  A
C3896      C3897   1.398       .  A
C3896      H3907   1.084       .  S
C3897      C3898   1.404       .  A
C3897      H3908   1.083       .  S
C3898      C3899   1.401       .  A
C3899      C3900   1.409       .  A
C3899      H3909   1.084       .  S
C3900      C3901   1.409       .  A
C3901      H3910   1.084       .  S
C3902      C3903   1.409       .  A
C3902      H3911   1.084       .  S
C3903      C3904   1.408       .  A
C3904      H3912   1.084       .  S
C3913      C3914   1.395       .  A
C3913      C3918   1.402       .  A
C3913      H3929   1.084       .  S
C3914      C3915   1.402       .  A
C3914      H3930   1.084       .  S
C3915      C3925   1.397       .  A
C3915      C3916   1.412       .  A
C3916      C3922   1.413       .  A
C3916      C3917   1.411       .  A
C3917      C3919   1.414       .  A
C3917      C3918   1.411       .  A
C3918      C3926   1.396       .  A
C3919      C3928   1.409       .  A
C3919      C3920   1.405       .  A
C3920      C3921   1.402       .  A
C3920      H3931   1.083       .  S
C3921      C3922   1.405       .  A
C3921      H3932   1.083       .  S
C3922      C3923   1.408       .  A
C3923      C3924   1.405       .  A
C3923      H3933   1.084       .  S
C3924      C3925   1.403       .  A
C3925      H3934   1.085       .  S
C3926      C3927   1.403       .  A
C3926      H3935   1.085       .  S
C3927      C3928   1.405       .  A
C3928      H3936   1.084       .  S
C3937      C3938   1.397       .  A
C3937      C3942   1.403       .  A
C3937      H3953   1.084       .  S
C3938      C3939   1.403       .  A
C3938      H3954   1.084       .  S
C3939      C3949   1.399       .  A
C3939      C3940   1.410       .  A
C3940      C3946   1.412       .  A
C3940      C3941   1.411       .  A
C3941      C3943   1.413       .  A
C3941      C3942   1.411       .  A
C3942      C3950   1.398       .  A
C3943      C3952   1.407       .  A
C3943      C3944   1.404       .  A
C3944      C3945   1.401       .  A
C3944      H3955   1.083       .  S
C3945      C3946   1.404       .  A
C3945      H3956   1.083       .  S
C3946      C3947   1.406       .  A
C3947      C3948   1.407       .  A
C3947      H3957   1.084       .  S
C3948      C3949   1.408       .  A
C3949      H3958   1.084       .  S
C3950      C3951   1.406       .  A
C3950      H3959   1.085       .  S
C3951      C3952   1.405       .  A
C3952      H3960   1.084       .  S
C3961      C3962   1.394       .  A
C3961      C3966   1.402       .  A
C3961      H3977   1.084       .  S
C3962      C3963   1.402       .  A
C3962      H3978   1.084       .  S
C3963      C3973   1.397       .  A
C3963      C3964   1.410       .  A
C3964      C3970   1.411       .  A
C3964      C3965   1.414       .  A
C3965      C3967   1.413       .  A
C3965      C3966   1.409       .  A
C3966      C3974   1.396       .  A
C3967      C3976   1.413       .  A
C3967      C3968   1.406       .  A
C3968      C3969   1.405       .  A
C3968      H3979   1.084       .  S
C3969      C3970   1.406       .  A
C3969      H3980   1.083       .  S
C3970      C3971   1.412       .  A
C3971      C3972   1.412       .  A
C3971      H3981   1.084       .  S
C3972      C3973   1.407       .  A
C3973      H3982   1.084       .  S
C3974      C3975   1.408       .  A
C3974      H3983   1.084       .  S
C3975      C3976   1.411       .  A
C3976      H3984   1.084       .  S
C3985      C3986   1.403       .  A
C3985      C3990   1.405       .  A
C3985      H4001   1.084       .  S
C3986      C3987   1.405       .  A
C3986      H4002   1.083       .  S
C3987      C3997   1.411       .  A
C3987      C3988   1.413       .  A
C3988      C3994   1.409       .  A
C3988      C3989   1.415       .  A
C3989      C3991   1.412       .  A
C3989      C3990   1.411       .  A
C3990      C3998   1.409       .  A
C3991      C4000   1.403       .  A
C3991      C3992   1.403       .  A
C3992      C3993   1.398       .  A
C3992      H4003   1.083       .  S
C3993      C3994   1.404       .  A
C3993      H4004   1.084       .  S
C3994      C3995   1.401       .  A
C3995      C3996   1.410       .  A
C3995      H4005   1.084       .  S
C3996      C3997   1.409       .  A
C3997      H4006   1.084       .  S
C3998      C3999   1.409       .  A
C3998      H4007   1.084       .  S
C3999      C4000   1.406       .  A
C4000      H4008   1.084       .  S
C4009      C4010   1.398       .  A
C4009      C4014   1.403       .  A
C4009      H4025   1.083       .  S
C4010      C4011   1.403       .  A
C4010      H4026   1.083       .  S
C4011      C4021   1.403       .  A
C4011      C4012   1.410       .  A
C4012      C4018   1.412       .  A
C4012      C4013   1.417       .  A
C4013      C4015   1.411       .  A
C4013      C4014   1.411       .  A
C4014      C4022   1.404       .  A
C4015      C4024   1.412       .  A
C4015      C4016   1.406       .  A
C4016      C4017   1.404       .  A
C4016      H4027   1.083       .  S
C4017      C4018   1.406       .  A
C4017      H4028   1.083       .  S
C4018      C4019   1.413       .  A
C4019      C4020   1.412       .  A
C4019      H4029   1.084       .  S
C4020      C4021   1.410       .  A
C4021      H4030   1.084       .  S
C4022      C4023   1.410       .  A
C4022      H4031   1.084       .  S
C4023      C4024   1.413       .  A
C4024      H4032   1.084       .  S
C4033      C4034   1.403       .  A
C4033      C4038   1.405       .  A
C4033      H4049   1.083       .  S
C4034      C4035   1.405       .  A
C4034      H4050   1.084       .  S
C4035      C4045   1.409       .  A
C4035      C4036   1.414       .  A
C4036      C4042   1.411       .  A
C4036      C4037   1.411       .  A
C4037      C4039   1.411       .  A
C4037      C4038   1.414       .  A
C4038      C4046   1.409       .  A
C4039      C4048   1.395       .  A
C4039      C4040   1.402       .  A
C4040      C4041   1.394       .  A
C4040      H4051   1.084       .  S
C4041      C4042   1.402       .  A
C4041      H4052   1.084       .  S
C4042      C4043   1.395       .  A
C4043      C4044   1.403       .  A
C4043      H4053   1.085       .  S
C4044      C4045   1.405       .  A
C4045      H4054   1.084       .  S
C4046      C4047   1.406       .  A
C4046      H4055   1.084       .  S
C4047      C4048   1.403       .  A
C4048      H4056   1.086       .  S
C4057      C4058   1.396       .  A
C4057      C4062   1.402       .  A
C4057      H4073   1.084       .  S
C4058      C4059   1.402       .  A
C4058      H4074   1.083       .  S
C4059      C4069   1.398       .  A
C4059      C4060   1.410       .  A
C4060      C4066   1.414       .  A
C4060      C4061   1.417       .  A
C4061      C4063   1.411       .  A
C4061      C4062   1.411       .  A
C4062      C4070   1.402       .  A
C4063      C4072   1.414       .  A
C4063      C4064   1.407       .  A
C4064      C4065   1.406       .  A
C4064      H4075   1.083       .  S
C4065      C4066   1.406       .  A
C4065      H4076   1.083       .  S
C4066      C4067   1.416       .  A
C4067      C4068   1.411       .  A
C4067      H4077   1.084       .  S
C4068      C4069   1.406       .  A
C4069      H4078   1.085       .  S
C4070      C4071   1.408       .  A
C4070      H4079   1.084       .  S
C4071      C4072   1.414       .  A
C4072      H4080   1.084       .  S
C4081      C4082   1.401       .  A
C4081      C4086   1.405       .  A
C4081      H4097   1.084       .  S
C4082      C4083   1.405       .  A
C4082      H4098   1.083       .  S
C4083      C4093   1.408       .  A
C4083      C4084   1.411       .  A
C4084      C4090   1.411       .  A
C4084      C4085   1.420       .  A
C4085      C4087   1.413       .  A
C4085      C4086   1.410       .  A
C4086      C4094   1.406       .  A
C4087      C4096   1.416       .  A
C4087      C4088   1.406       .  A
C4088      C4089   1.405       .  A
C4088      H4099   1.083       .  S
C4089      C4090   1.406       .  A
C4089      H4100   1.084       .  S
C4090      C4091   1.413       .  A
C4091      C4092   1.412       .  A
C4091      H4101   1.084       .  S
C4092      C4093   1.413       .  A
C4093      H4102   1.084       .  S
C4094      C4095   1.413       .  A
C4094      H4103   1.084       .  S
C4095      C4096   1.412       .  A
C4096      H4104   1.084       .  S
C4105      C4106   1.401       .  A
C4105      C4110   1.405       .  A
C4105      H4121   1.083       .  S
C4106      C4107   1.404       .  A
C4106      H4122   1.083       .  S
C4107      C4117   1.406       .  A
C4107      C4108   1.413       .  A
C4108      C4114   1.412       .  A
C4108      C4109   1.411       .  A
C4109      C4111   1.411       .  A
C4109      C4110   1.412       .  A
C4110      C4118   1.406       .  A
C4111      C4120   1.398       .  A
C4111      C4112   1.403       .  A
C4112      C4113   1.396       .  A
C4112      H4123   1.084       .  S
C4113      C4114   1.402       .  A
C4113      H4124   1.084       .  S
C4114      C4115   1.398       .  A
C4115      C4116   1.403       .  A
C4115      H4125   1.085       .  S
C4116      C4117   1.404       .  A
C4117      H4126   1.084       .  S
C4118      C4119   1.409       .  A
C4118      H4127   1.084       .  S
C4119      C4120   1.406       .  A
C4120      H4128   1.084       .  S
C4129      C4130   1.399       .  A
C4129      C4134   1.404       .  A
C4129      H4145   1.084       .  S
C4130      C4131   1.404       .  A
C4130      H4146   1.084       .  S
C4131      C4141   1.406       .  A
C4131      C4132   1.412       .  A
C4132      C4138   1.410       .  A
C4132      C4133   1.416       .  A
C4133      C4135   1.413       .  A
C4133      C4134   1.410       .  A
C4134      C4142   1.403       .  A
C4135      C4144   1.410       .  A
C4135      C4136   1.404       .  A
C4136      C4137   1.402       .  A
C4136      H4147   1.083       .  S
C4137      C4138   1.405       .  A
C4137      H4148   1.083       .  S
C4138      C4139   1.407       .  A
C4139      C4140   1.411       .  A
C4139      H4149   1.084       .  S
C4140      C4141   1.409       .  A
C4141      H4150   1.084       .  S
C4142      C4143   1.410       .  A
C4142      H4151   1.084       .  S
C4143      C4144   1.410       .  A
C4144      H4152   1.084       .  S
C4153      C4154   1.405   1_655  A
C4153      C4158   1.406       .  A
C4153      H4169   1.083       .  S
C4154      C4155   1.406       .  A
C4154      H4170   1.083       .  S
C4155      C4165   1.415       .  A
C4155      C4156   1.413       .  A
C4156      C4162   1.409       .  A
C4156      C4157   1.416   1_455  A
C4157      C4159   1.411       .  A
C4157      C4158   1.411       .  A
C4158      C4166   1.412       .  A
C4159      C4168   1.400       .  A
C4159      C4160   1.402       .  A
C4160      C4161   1.396   1_655  A
C4160      H4171   1.084       .  S
C4161      C4162   1.403       .  A
C4161      H4172   1.084       .  S
C4162      C4163   1.398       .  A
C4163      C4164   1.409       .  A
C4163      H4173   1.084       .  S
C4164      C4165   1.412       .  A
C4165      H4174   1.083       .  S
C4166      C4167   1.412       .  A
C4166      H4175   1.084       .  S
C4167      C4168   1.408       .  A
C4168      H4176   1.084       .  S
C4177      C4178   1.397   1_565  A
C4177      C4182   1.403       .  A
C4177      H4193   1.084       .  S
C4178      C4179   1.403       .  A
C4178      H4194   1.083       .  S
C4179      C4189   1.400       .  A
C4179      C4180   1.410       .  A
C4180      C4186   1.413       .  A
C4180      C4181   1.417   1_545  A
C4181      C4183   1.412       .  A
C4181      C4182   1.411       .  A
C4182      C4190   1.401       .  A
C4183      C4192   1.414       .  A
C4183      C4184   1.406       .  A
C4184      C4185   1.406   1_565  A
C4184      H4195   1.083       .  S
C4185      C4186   1.406       .  A
C4185      H4196   1.084       .  S
C4186      C4187   1.414       .  A
C4187      C4188   1.411       .  A
C4187      H4197   1.084       .  S
C4188      C4189   1.408       .  A
C4189      H4198   1.084       .  S
C4190      C4191   1.408       .  A
C4190      H4199   1.084       .  S
C4191      C4192   1.411       .  A
C4192      H4200   1.084       .  S
C4201      C4202   1.399       .  A
C4201      C4206   1.404       .  A
C4201      H4217   1.083       .  S
C4202      C4203   1.403       .  A
C4202      H4218   1.084       .  S
C4203      C4213   1.406       .  A
C4203      C4204   1.414       .  A
C4204      C4210   1.411       .  A
C4204      C4205   1.412       .  A
C4205      C4207   1.414       .  A
C4205      C4206   1.411       .  A
C4206      C4214   1.402       .  A
C4207      C4216   1.403       .  A
C4207      C4208   1.403       .  A
C4208      C4209   1.398       .  A
C4208      H4219   1.084       .  S
C4209      C4210   1.404       .  A
C4209      H4220   1.083       .  S
C4210      C4211   1.400       .  A
C4211      C4212   1.406       .  A
C4211      H4221   1.085       .  S
C4212      C4213   1.404       .  A
C4213      H4222   1.085       .  S
C4214      C4215   1.405       .  A
C4214      H4223   1.084       .  S
C4215      C4216   1.403       .  A
C4216      H4224   1.085       .  S
C4225      C4226   1.398       .  A
C4225      C4230   1.403       .  A
C4225      H4241   1.084       .  S
C4226      C4227   1.403       .  A
C4226      H4242   1.083       .  S
C4227      C4237   1.404       .  A
C4227      C4228   1.413       .  A
C4228      C4234   1.412       .  A
C4228      C4229   1.417       .  A
C4229      C4231   1.414       .  A
C4229      C4230   1.411       .  A
C4230      C4238   1.402       .  A
C4231      C4240   1.413       .  A
C4231      C4232   1.405       .  A
C4232      C4233   1.403       .  A
C4232      H4243   1.083       .  S
C4233      C4234   1.405       .  A
C4233      H4244   1.084       .  S
C4234      C4235   1.410       .  A
C4235      C4236   1.407       .  A
C4235      H4245   1.084       .  S
C4236      C4237   1.404       .  A
C4237      H4246   1.085       .  S
C4238      C4239   1.407       .  A
C4238      H4247   1.085       .  S
C4239      C4240   1.408       .  A
C4240      H4248   1.084       .  S
C4249      C4250   1.406   1_554  A
C4249      C4254   1.407       .  A
C4249      H4265   1.083       .  S
C4250      C4251   1.406       .  A
C4250      H4266   1.083       .  S
C4251      C4261   1.417       .  A
C4251      C4252   1.413       .  A
C4252      C4258   1.410       .  A
C4252      C4253   1.419   1_556  A
C4253      C4255   1.411       .  A
C4253      C4254   1.412       .  A
C4254      C4262   1.415       .  A
C4255      C4264   1.404       .  A
C4255      C4256   1.403       .  A
C4256      C4257   1.398   1_554  A
C4256      H4267   1.084       .  S
C4257      C4258   1.403       .  A
C4257      H4268   1.083       .  S
C4258      C4259   1.401       .  A
C4259      C4260   1.409       .  A
C4259      H4269   1.084       .  S
C4260      C4261   1.412       .  A
C4261      H4270   1.084       .  S
C4262      C4263   1.413       .  A
C4262      H4271   1.084       .  S
C4263      C4264   1.409       .  A
C4264      H4272   1.084       .  S
C4273      C4274   1.396   1_545  A
C4273      C4278   1.402       .  A
C4273      H4289   1.084       .  S
C4274      C4275   1.402       .  A
C4274      H4290   1.083       .  S
C4275      C4285   1.397       .  A
C4275      C4276   1.411       .  A
C4276      C4282   1.414       .  A
C4276      C4277   1.413   1_565  A
C4277      C4279   1.411       .  A
C4277      C4278   1.411       .  A
C4278      C4286   1.399       .  A
C4279      C4288   1.409       .  A
C4279      C4280   1.406       .  A
C4280      C4281   1.403   1_545  A
C4280      H4291   1.083       .  S
C4281      C4282   1.405       .  A
C4281      H4292   1.084       .  S
C4282      C4283   1.411       .  A
C4283      C4284   1.406       .  A
C4283      H4293   1.084       .  S
C4284      C4285   1.403       .  A
C4285      H4294   1.085       .  S
C4286      C4287   1.407       .  A
C4286      H4295   1.084       .  S
C4287      C4288   1.411       .  A
C4288      H4296   1.084       .  S
C4297      C4298   1.404       .  A
C4297      C4302   1.405       .  A
C4297      H4313   1.084       .  S
C4298      C4299   1.405       .  A
C4298      H4314   1.083       .  S
C4299      C4309   1.414       .  A
C4299      C4300   1.414       .  A
C4300      C4306   1.410       .  A
C4300      C4301   1.417       .  A
C4301      C4303   1.412       .  A
C4301      C4302   1.413       .  A
C4302      C4310   1.412       .  A
C4303      C4312   1.403       .  A
C4303      C4304   1.403       .  A
C4304      C4305   1.398       .  A
C4304      H4315   1.084       .  S
C4305      C4306   1.404       .  A
C4305      H4316   1.084       .  S
C4306      C4307   1.401       .  A
C4307      C4308   1.409       .  A
C4307      H4317   1.085       .  S
C4308      C4309   1.408       .  A
C4309      H4318   1.084       .  S
C4310      C4311   1.407       .  A
C4310      H4319   1.084       .  S
C4311      C4312   1.406       .  A
C4312      H4320   1.085       .  S
C4321      C4322   1.394       .  A
C4321      C4326   1.401       .  A
C4321      H4337   1.084       .  S
C4322      C4323   1.402       .  A
C4322      H4338   1.084       .  S
C4323      C4333   1.395       .  A
C4323      C4324   1.410       .  A
C4324      C4330   1.415       .  A
C4324      C4325   1.414       .  A
C4325      C4327   1.412       .  A
C4325      C4326   1.413       .  A
C4326      C4334   1.397       .  A
C4327      C4336   1.411       .  A
C4327      C4328   1.406       .  A
C4328      C4329   1.405       .  A
C4328      H4339   1.084       .  S
C4329      C4330   1.406       .  A
C4329      H4340   1.083       .  S
C4330      C4331   1.415       .  A
C4331      C4332   1.409       .  A
C4331      H4341   1.084       .  S
C4332      C4333   1.405       .  A
C4333      H4342   1.086       .  S
C4334      C4335   1.401       .  A
C4334      H4343   1.085       .  S
C4335      C4336   1.408       .  A
C4336      H4344   1.084       .  S
C4345      C4346   1.401       .  A
C4345      C4350   1.404       .  A
C4345      H4361   1.083       .  S
C4346      C4347   1.404       .  A
C4346      H4362   1.084       .  S
C4347      C4357   1.408       .  A
C4347      C4348   1.414       .  A
C4348      C4354   1.412       .  A
C4348      C4349   1.413       .  A
C4349      C4351   1.412       .  A
C4349      C4350   1.413       .  A
C4350      C4358   1.408       .  A
C4351      C4360   1.400       .  A
C4351      C4352   1.403       .  A
C4352      C4353   1.397       .  A
C4352      H4363   1.084       .  S
C4353      C4354   1.403       .  A
C4353      H4364   1.084       .  S
C4354      C4355   1.400       .  A
C4355      C4356   1.404       .  A
C4355      H4365   1.085       .  S
C4356      C4357   1.404       .  A
C4357      H4366   1.084       .  S
C4358      C4359   1.404       .  A
C4358      H4367   1.084       .  S
C4359      C4360   1.404       .  A
C4360      H4368   1.085       .  S
C4369      C4370   1.405   1_554  A
C4369      C4374   1.406       .  A
C4369      H4385   1.083       .  S
C4370      C4371   1.406       .  A
C4370      H4386   1.083       .  S
C4371      C4381   1.414       .  A
C4371      C4372   1.413       .  A
C4372      C4378   1.409       .  A
C4372      C4373   1.417   1_556  A
C4373      C4375   1.411       .  A
C4373      C4374   1.411       .  A
C4374      C4382   1.413       .  A
C4375      C4384   1.402       .  A
C4375      C4376   1.403       .  A
C4376      C4377   1.397   1_554  A
C4376      H4387   1.084       .  S
C4377      C4378   1.403       .  A
C4377      H4388   1.084       .  S
C4378      C4379   1.400       .  A
C4379      C4380   1.410       .  A
C4379      H4389   1.084       .  S
C4380      C4381   1.411       .  A
C4381      H4390   1.084       .  S
C4382      C4383   1.412       .  A
C4382      H4391   1.084       .  S
C4383      C4384   1.409       .  A
C4384      H4392   1.084       .  S
C4393      C4394   1.404   1_655  A
C4393      C4398   1.406       .  A
C4393      H4409   1.083       .  S
C4394      C4395   1.406       .  A
C4394      H4410   1.084       .  S
C4395      C4405   1.413       .  A
C4395      C4396   1.412       .  A
C4396      C4402   1.411       .  A
C4396      C4397   1.417   1_455  A
C4397      C4399   1.410       .  A
C4397      C4398   1.412       .  A
C4398      C4406   1.413       .  A
C4399      C4408   1.403       .  A
C4399      C4400   1.403       .  A
C4400      C4401   1.398   1_655  A
C4400      H4411   1.083       .  S
C4401      C4402   1.403       .  A
C4401      H4412   1.084       .  S
C4402      C4403   1.404       .  A
C4403      C4404   1.409       .  A
C4403      H4413   1.084       .  S
C4404      C4405   1.411       .  A
C4405      H4414   1.084       .  S
C4406      C4407   1.411       .  A
C4406      H4415   1.084       .  S
C4407      C4408   1.409       .  A
C4408      H4416   1.084       .  S
C4417      C4418   1.398       .  A
C4417      C4422   1.403       .  A
C4417      H4433   1.084       .  S
C4418      C4419   1.404       .  A
C4418      H4434   1.083       .  S
C4419      C4429   1.401       .  A
C4419      C4420   1.410       .  A
C4420      C4426   1.412       .  A
C4420      C4421   1.412       .  A
C4421      C4423   1.410       .  A
C4421      C4422   1.412       .  A
C4422      C4430   1.402       .  A
C4423      C4432   1.403       .  A
C4423      C4424   1.404       .  A
C4424      C4425   1.400       .  A
C4424      H4435   1.083       .  S
C4425      C4426   1.404       .  A
C4425      H4436   1.083       .  S
C4426      C4427   1.406       .  A
C4427      C4428   1.408       .  A
C4427      H4437   1.084       .  S
C4428      C4429   1.409       .  A
C4429      H4438   1.084       .  S
C4430      C4431   1.407       .  A
C4430      H4439   1.085       .  S
C4431      C4432   1.409       .  A
C4432      H4440   1.084       .  S
C4441      C4442   1.398       .  A
C4441      C4446   1.403       .  A
C4441      H4457   1.084       .  S
C4442      C4443   1.403       .  A
C4442      H4458   1.084       .  S
C4443      C4453   1.401       .  A
C4443      C4444   1.412       .  A
C4444      C4450   1.411       .  A
C4444      C4445   1.411       .  A
C4445      C4447   1.414       .  A
C4445      C4446   1.411       .  A
C4446      C4454   1.399       .  A
C4447      C4456   1.405       .  A
C4447      C4448   1.403       .  A
C4448      C4449   1.399       .  A
C4448      H4459   1.083       .  S
C4449      C4450   1.404       .  A
C4449      H4460   1.083       .  S
C4450      C4451   1.403       .  A
C4451      C4452   1.408       .  A
C4451      H4461   1.084       .  S
C4452      C4453   1.407       .  A
C4453      H4462   1.084       .  S
C4454      C4455   1.404       .  A
C4454      H4463   1.085       .  S
C4455      C4456   1.402       .  A
C4456      H4464   1.084       .  S
C4465      C4466   1.403       .  A
C4465      C4470   1.405       .  A
C4465      H4481   1.084       .  S
C4466      C4467   1.405       .  A
C4466      H4482   1.083       .  S
C4467      C4477   1.412       .  A
C4467      C4468   1.414       .  A
C4468      C4474   1.410       .  A
C4468      C4469   1.415       .  A
C4469      C4471   1.413       .  A
C4469      C4470   1.413       .  A
C4470      C4478   1.410       .  A
C4471      C4480   1.401       .  A
C4471      C4472   1.403       .  A
C4472      C4473   1.397       .  A
C4472      H4483   1.084       .  S
C4473      C4474   1.403       .  A
C4473      H4484   1.084       .  S
C4474      C4475   1.399       .  A
C4475      C4476   1.407       .  A
C4475      H4485   1.085       .  S
C4476      C4477   1.407       .  A
C4477      H4486   1.084       .  S
C4478      C4479   1.407       .  A
C4478      H4487   1.084       .  S
C4479      C4480   1.404       .  A
C4480      H4488   1.085       .  S
C4489      C4490   1.402       .  A
C4489      C4494   1.405       .  A
C4489      H4505   1.083       .  S
C4490      C4491   1.405       .  A
C4490      H4506   1.084       .  S
C4491      C4501   1.410       .  A
C4491      C4492   1.413       .  A
C4492      C4498   1.412       .  A
C4492      C4493   1.416       .  A
C4493      C4495   1.412       .  A
C4493      C4494   1.413       .  A
C4494      C4502   1.409       .  A
C4495      C4504   1.404       .  A
C4495      C4496   1.404       .  A
C4496      C4497   1.399       .  A
C4496      H4507   1.084       .  S
C4497      C4498   1.403       .  A
C4497      H4508   1.084       .  S
C4498      C4499   1.404       .  A
C4499      C4500   1.404       .  A
C4499      H4509   1.085       .  S
C4500      C4501   1.407       .  A
C4501      H4510   1.084       .  S
C4502      C4503   1.406       .  A
C4502      H4511   1.084       .  S
C4503      C4504   1.405       .  A
C4504      H4512   1.085       .  S
