geometry optimzed in LAMMPS
_audit_creation_date              2020-11-30 
_audit_creation_method            'lammps2cif' 
_symmetry_space_group_name_H-M    'P1' 
_symmetry_Int_Tables_number       1 
_symmetry_cell_setting            triclinic 
loop_ 
_symmetry_equiv_pos_as_xyz 
  x,y,z 
_cell_length_a                    35.52802346 
_cell_length_b                    35.59118710430518 
_cell_length_c                    35.34554499569052 
_cell_angle_alpha                 90.05076760814947 
_cell_angle_beta                  89.99437273180604 
_cell_angle_gamma                 89.99582905788583 
loop_ 
_atom_site_label 
_atom_site_type_symbol 
_atom_site_fract_x 
_atom_site_fract_y 
_atom_site_fract_z 
_atom_site_charge 
C1          C  0.80095551  0.76761491  0.74490594     0.80400
N2          N  0.79659159  0.74144999  0.77244594    -0.77900
C3          C  0.76731541  0.74350375  0.79694197     0.82800
N4          N  0.74251497  0.77232020  0.79389425    -0.77800
C5          C  0.74660340  0.79859683  0.76636188     0.82900
N6          N  0.77592726  0.79617038  0.74204897    -0.79600
C7          C  0.24419013  0.76374046  0.29386407     0.80400
N8          N  0.27171540  0.76658573  0.32024570    -0.77900
C9          C  0.29809138  0.79401653  0.31794972     0.82800
N10         N  0.29693978  0.81870706  0.28868764    -0.77800
C11         C  0.26941261  0.81617788  0.26210506     0.82900
N12         N  0.24321241  0.78858783  0.26482534    -0.79600
C13         C  0.76857614  0.76677001  0.32469352     0.80400
N14         N  0.79416211  0.79495129  0.32564914    -0.77900
C15         C  0.82244752  0.79653994  0.29999315     0.82800
N16         N  0.82482030  0.76966320  0.27281873    -0.77800
C17         C  0.79937397  0.74115572  0.27164202     0.82900
N18         N  0.77125128  0.73999494  0.29756868    -0.79600
C19         C  0.29742747  0.26809852  0.24253183     0.80400
N20         N  0.29439940  0.24248681  0.27084669    -0.77900
C21         C  0.26676180  0.24565914  0.29725923     0.82800
N22         N  0.24238861  0.27505129  0.29539947    -0.77800
C23         C  0.24523380  0.30074277  0.26714238     0.82900
N24         N  0.27278425  0.29704923  0.24096375    -0.79600
C25         C  0.79340455  0.32117438  0.29929243     0.80400
N26         N  0.76657699  0.32360969  0.27218319    -0.77900
C27         C  0.76549746  0.29819365  0.24356821     0.82800
N28         N  0.79124871  0.27006329  0.24237025    -0.77800
C29         C  0.81821230  0.26734879  0.26934276     0.82900
N30         N  0.81905531  0.29294658  0.29775466    -0.79600
C31         C  0.74183629  0.26629114  0.79928697     0.80400
N32         N  0.76913126  0.26947937  0.82598618    -0.77900
C33         C  0.79446626  0.29797274  0.82436738     0.82800
N34         N  0.79258061  0.32299077  0.79552703    -0.77800
C35         C  0.76534135  0.32003701  0.76890109     0.82900
N36         N  0.74018144  0.29160965  0.77086187    -0.79600
C37         C  0.29437280  0.82040378  0.80241122     0.80400
N38         N  0.26505375  0.82098760  0.77797470    -0.77900
C39         C  0.26242034  0.79505500  0.75005171     0.82800
N40         N  0.28927858  0.76817220  0.74671398    -0.77800
C41         C  0.31890591  0.76744026  0.77091394     0.82900
N42         N  0.32117309  0.79350570  0.79882324    -0.79600
O43         O  0.08765947  0.03483398  0.99778993    -0.88200
C44         C  0.98615606  0.04284752  0.94670128     0.87900
Mg45       Mg  0.10511263  0.98541263  0.02593177     1.58100
O46         O  0.99445673  0.09030014  0.03309642    -0.87900
O47         O  0.08035462  0.09433145  0.01084684    -0.75200
C48         C  0.96226427  0.93677050  0.13549977     0.92900
O49         O  0.04126733  0.97025152  0.95615045    -0.75000
O50         O  0.99019916  0.92110106  0.11931359    -0.82500
Mg51       Mg  0.06737349  0.02785813  0.94122039     1.58000
C52         C  0.91358248  0.08478901  0.11487220     0.92800
O53         O  0.09475202  0.08425120  0.92175853    -0.80800
H54         H  0.01914056  0.12972144  0.06487112    -0.06100
C55         C  0.94538996  0.98750602  0.03862324     0.87800
O56         O  0.08898386  0.01023091  0.08347786    -0.75300
O57         O  0.01638113  0.05531320  0.95889361    -0.88100
O58         O  0.91779205  0.09530872  0.08059521    -0.80900
C59         C  0.93574808  0.13844326  0.96612598     0.93000
C60         C  0.08443288  0.11850860  0.91851931     0.92800
Mg61       Mg  0.97962145  0.02476340  0.10720188     1.58000
O62         O  0.95345953  0.97071327  0.12859713    -0.80800
O63         O  0.00532092  0.08221641  0.09335318    -0.75100
O64         O  0.97004969  0.13222500  0.95809051    -0.80900
O65         O  0.12052544  0.99654158  0.92206594    -0.82600
O66         O  0.07791657  0.92117062  0.09517279    -0.80900
C67         C  0.00641492  0.10216586  0.06365808     0.87200
O68         O  0.02927207  0.99707016  0.08976177    -0.88100
O69         O  0.95678633  0.01777936  0.05158761    -0.88200
O70         O  0.96506691  0.95764725  0.04037558    -0.75200
Mg71       Mg  0.02346695  0.10949274  0.98450025     1.58000
O72         O  0.91943811  0.12148026  0.99325894    -0.82600
H73         H  0.12732004  0.06480131  0.02422914    -0.06300
O74         O  0.05065591  0.96113747  0.01692467    -0.87900
H75         H  0.02541651  0.92294260  0.98402579    -0.06200
H76         H  0.05880043  0.02232328  0.13065541    -0.06300
C77         C  0.03885058  0.95012563  0.98584673     0.87200
C78         C  0.09989967  0.06452495  0.01105874     0.87800
C79         C  0.05887579  0.00991005  0.10274685     0.87900
H80         H  0.91829529  0.98657245  0.02473863    -0.06300
O81         O  0.95601032  0.04388288  0.96620596    -0.75300
Mg82       Mg  0.02225904  0.94174074  0.06707702     1.58000
H83         H  0.98553917  0.02992195  0.91902567    -0.06300
C84         C  0.13604663  0.96857522  0.93827099     0.92800
O85         O  0.12518740  0.93434313  0.05605731    -0.82600
C86         C  0.11232885  0.91806727  0.08522069     0.92900
O87         O  0.05480063  0.13091272  0.93421241    -0.82500
Mg88       Mg  0.93892765  0.06867042  0.02419669     1.58200
O89         O  0.12835625  0.95996835  0.97227061    -0.80900
O90         O  0.92815182  0.05462213  0.12713815    -0.82600
C91         C  0.19071286  0.30636197  0.88279731     0.03300
C92         C  0.16741503  0.27479908  0.88643118    -0.12800
C93         C  0.17778724  0.24033541  0.87013280     0.00800
C94         C  0.21101144  0.23819507  0.84895802    -0.11400
C95         C  0.23439481  0.26974670  0.84506828     0.03300
C96         C  0.22441518  0.30366362  0.86266544    -0.10800
H97         H  0.14165517  0.27693756  0.90273458     0.08900
H98         H  0.21857419  0.21190939  0.83545266     0.06400
H99         H  0.24195616  0.32838604  0.85953124     0.06300
C100        C  0.88595084  0.19331728  0.30415166     0.03300
C101        C  0.88964998  0.17077494  0.27188333    -0.12800
C102        C  0.87073184  0.17991642  0.23823672     0.00800
C103        C  0.84824512  0.21229584  0.23719180    -0.11400
C104        C  0.84446858  0.23523053  0.26943007     0.03300
C105        C  0.86394773  0.22578601  0.30270180    -0.10800
H106        H  0.90728724  0.14596200  0.27317801     0.08900
H107        H  0.83310548  0.21912680  0.21149512     0.06400
H108        H  0.86059761  0.24251045  0.32811931     0.06300
C109        C  0.30271015  0.88209216  0.18541801     0.03300
C110        C  0.26966779  0.88710365  0.16454467    -0.12800
C111        C  0.23619797  0.86919006  0.17543361     0.00800
C112        C  0.23603164  0.84667519  0.20796290    -0.11400
C113        C  0.26913376  0.84165258  0.22924671     0.03300
C114        C  0.30243304  0.85958402  0.21777462    -0.10800
H115        H  0.27015954  0.90483593  0.13962270     0.08900
H116        H  0.21023108  0.83274198  0.21634693     0.06400
H117        H  0.32838635  0.85536640  0.23331836     0.06300
O118        O  0.04028404  0.45539128  0.51762318    -0.88200
C119        C  0.05084584  0.55400917  0.46218752     0.87900
Mg120      Mg  0.99228501  0.44327961  0.55152002     1.58100
O121        O  0.10833980  0.54593061  0.54289944    -0.87900
O122        O  0.10155812  0.45921515  0.52435048    -0.75200
C123        C  0.96611880  0.59698139  0.65352006     0.92900
O124        O  0.97548861  0.50829976  0.48240645    -0.75000
O125        O  0.94744418  0.56804595  0.64371493    -0.82500
Mg126      Mg  0.02829298  0.47704982  0.46212959     1.58000
C127        C  0.11311824  0.63327732  0.61849209     0.92800
O128        O  0.07738160  0.44584762  0.43455339    -0.80800
H129        H  0.14808257  0.51850807  0.57189170    -0.06100
C130        C  0.00986469  0.60194043  0.55716576     0.87800
O131        O  0.02429785  0.45861757  0.60575725    -0.75300
O132        O  0.06218592  0.52400239  0.47548856    -0.88100
O133        O  0.11925347  0.62658070  0.58362608    -0.80900
C134        C  0.14601906  0.59991119  0.46500653     0.93000
C135        C  0.11183661  0.45159813  0.42654231     0.92800
Mg136      Mg  0.05092326  0.56728281  0.62313964     1.58000
O137        O  0.00089620  0.60022468  0.64574716    -0.80800
O138        O  0.10433187  0.53637086  0.60412244    -0.75100
O139        O  0.13965660  0.56489237  0.46085974    -0.80900
O140        O  0.99044290  0.42872337  0.44688579    -0.82600
O141        O  0.93580276  0.48044653  0.62393578    -0.80900
C142        C  0.12163241  0.53351293  0.57276196     0.87200
O143        O  0.01704550  0.51947767  0.61161596    -0.88100
O144        O  0.03993945  0.58759813  0.56714694    -0.88200
O145        O  0.97860484  0.58551777  0.56244698    -0.75200
Mg146      Mg  0.11878234  0.51332078  0.49352482     1.58000
O147        O  0.13558667  0.61749065  0.49457970    -0.82600
H148        H  0.07036479  0.41526496  0.54315972    -0.06300
O149        O  0.97277974  0.49965996  0.54361266    -0.87900
H150        H  0.93279775  0.52742830  0.51531269    -0.06200
H151        H  0.04368403  0.48861847  0.65055856    -0.06300
C152        C  0.95899856  0.51202434  0.51403645     0.87200
C153        C  0.07052416  0.44192168  0.52849960     0.87800
C154        C  0.02850433  0.48907621  0.62405099     0.87900
H155        H  0.01027875  0.62866645  0.54265993    -0.06300
O156        O  0.05530698  0.58484191  0.47959063    -0.75300
Mg157      Mg  0.96075312  0.53147991  0.59295916     1.58000
H158        H  0.03562578  0.55380650  0.43571101    -0.06300
C159        C  0.96169295  0.41767076  0.46509292     0.92800
O160        O  0.94281224  0.42964404  0.58793444    -0.82600
C161        C  0.92793513  0.44640343  0.61589959     0.92900
O162        O  0.13089232  0.47746192  0.44234769    -0.82500
Mg163      Mg  0.08721416  0.60181291  0.53319694     1.58200
O164        O  0.95828236  0.42354702  0.50045358    -0.80900
O165        O  0.08701425  0.61689822  0.63661879    -0.82600
C166        C  0.76261851  0.39172811  0.37354763     0.03300
C167        C  0.76166401  0.36803334  0.34181016    -0.12800
C168        C  0.79416855  0.34804792  0.33097183     0.00800
C169        C  0.82747426  0.35239736  0.35180295    -0.11400
C170        C  0.82887745  0.37668962  0.38282831     0.03300
C171        C  0.79657071  0.39677406  0.39304993    -0.10800
H172        H  0.73536517  0.36383287  0.32686984     0.08900
H173        H  0.85242112  0.33664295  0.34406780     0.06400
H174        H  0.79760280  0.41621477  0.41664728     0.06300
C175        C  0.17176972  0.69159952  0.26461779     0.03300
C176        C  0.19667378  0.72196314  0.26329681    -0.12800
C177        C  0.21684703  0.73266881  0.29571243     0.00800
C178        C  0.21191457  0.71247283  0.32949429    -0.11400
C179        C  0.18704091  0.68193578  0.33106032     0.03300
C180        C  0.16669146  0.67191102  0.29850400    -0.10800
H181        H  0.20080944  0.73662207  0.23675300     0.08900
H182        H  0.22771260  0.72018122  0.35455026     0.06400
H183        H  0.14711936  0.64856969  0.29933917     0.06300
C184        C  0.87773187  0.79769563  0.67770912     0.03300
C185        C  0.89873348  0.76443513  0.67480994    -0.12800
C186        C  0.88704720  0.73180678  0.69387471     0.00800
C187        C  0.85515855  0.73330781  0.71703468    -0.11400
C188        C  0.83392477  0.76632996  0.71988790     0.03300
C189        C  0.84510148  0.79838186  0.69973345    -0.10800
H190        H  0.92366249  0.76386173  0.65714367     0.08900
H191        H  0.84684214  0.70856317  0.73279000     0.06400
H192        H  0.82937058  0.82436306  0.70222850     0.06300
O193        O  0.99387417  0.97682267  0.53363844    -0.88200
C194        C  0.94512258  0.07938585  0.53075595     0.87900
Mg195      Mg  0.02413039  0.95806071  0.58146024     1.58100
O196        O  0.02805640  0.07003234  0.47803454    -0.87900
O197        O  0.00354980  0.98507810  0.47325645    -0.75200
C198        C  0.13732364  0.09777744  0.62814926     0.92900
O199        O  0.95620796  0.02215024  0.60197691    -0.75000
O200        O  0.12119308  0.06969835  0.64338685    -0.82500
Mg201      Mg  0.93837960  0.99776272  0.54407187     1.58000
C202        C  0.11138612  0.14956924  0.48054953     0.92800
O203        O  0.91628627  0.97187176  0.48758304    -0.80800
H204        H  0.05701682  0.04496646  0.43660385    -0.06100
C205        C  0.03967817  0.11754744  0.58133494     0.87800
O206        O  0.08028136  0.97378933  0.55398393    -0.75300
O207        O  0.95561648  0.04911810  0.51695870    -0.88100
O208        O  0.07685173  0.14579372  0.47121945    -0.80900
C209        C  0.96023887  0.13075632  0.43385950     0.93000
C210        C  0.91146373  0.98293093  0.45352667     0.92800
Mg211      Mg  0.10560814  0.08272007  0.54031128     1.58000
O212        O  0.12995418  0.10797245  0.59444521    -0.80800
O213        O  0.08818260  0.05797176  0.48290056    -0.75100
O214        O  0.95081186  0.09706874  0.44109494    -0.80900
O215        O  0.92031054  0.94409111  0.57503376    -0.82600
O216        O  0.09578313  0.98375253  0.64369285    -0.80900
C217        C  0.05754819  0.05751792  0.46442768     0.87200
O218        O  0.08845785  0.03299528  0.56811028    -0.88100
O219        O  0.05118021  0.10652436  0.55017903    -0.88200
O220        O  0.04199279  0.09721352  0.61084518    -0.75200
Mg221      Mg  0.97772904  0.04278344  0.46093761     1.58000
O222        O  0.98891237  0.14581140  0.44921425    -0.82600
H223        H  0.01757649  0.93731968  0.50120427    -0.06300
O224        O  0.01699451  0.01217237  0.60708399    -0.87900
H225        H  0.98691638  0.03630222  0.64833387    -0.06200
H226        H  0.12719620  0.00317650  0.54013437    -0.06300
C227        C  0.98693280  0.02376231  0.62046635     0.87200
C228        C  0.00510054  0.96496070  0.50280165     0.87800
C229        C  0.10008376  0.00342829  0.55399628     0.87900
H230        H  0.02651286  0.14485002  0.58335303    -0.06300
O231        O  0.96511495  0.10906032  0.52872668    -0.75300
Mg232      Mg  0.06805561  0.03946554  0.62463484     1.58000
H233        H  0.91853009  0.08048759  0.54557296    -0.06300
C234        C  0.93764625  0.92770158  0.60194269     0.92800
O235        O  0.05631739  0.93687876  0.63097453    -0.82600
C236        C  0.08563077  0.94955845  0.64693737     0.92900
O237        O  0.92585347  0.01325448  0.44146661    -0.82500
Mg238      Mg  0.02172746  0.12534108  0.50068305     1.58200
O239        O  0.97186283  0.93493258  0.60925701    -0.80900
O240        O  0.12489280  0.13406479  0.50986780    -0.82600
C241        C  0.18360274  0.76017501  0.68821553     0.03300
C242        C  0.21671718  0.76088995  0.70939790    -0.12800
C243        C  0.22923872  0.79471451  0.72540809     0.00800
C244        C  0.20866863  0.82788946  0.71947548    -0.11400
C245        C  0.17572190  0.82729947  0.69780731     0.03300
C246        C  0.16324757  0.79322855  0.68233118    -0.10800
H247        H  0.23198063  0.73495837  0.71422388     0.08900
H248        H  0.21798171  0.85407146  0.73204278     0.06400
H249        H  0.13775942  0.79238642  0.66547374     0.06300
C250        C  0.29834661  0.17851082  0.37395991     0.03300
C251        C  0.26554640  0.17599086  0.39580468    -0.12800
C252        C  0.23245750  0.19454121  0.38478730     0.00800
C253        C  0.23263314  0.21648465  0.35184979    -0.11400
C254        C  0.26549252  0.21960632  0.32979889     0.03300
C255        C  0.29804211  0.19975639  0.34063777    -0.10800
H256        H  0.26576807  0.15922510  0.42140409     0.08900
H257        H  0.20739356  0.23160688  0.34384409     0.06400
H258        H  0.32376346  0.20233435  0.32436435     0.06300
C259        C  0.88778064  0.87301768  0.26531058     0.03300
C260        C  0.86742131  0.83936746  0.26669967    -0.12800
C261        C  0.84784380  0.82932144  0.29975941     0.00800
C262        C  0.84994354  0.85268849  0.33182417    -0.11400
C263        C  0.87124112  0.88578004  0.33115670     0.03300
C264        C  0.89005356  0.89570130  0.29770103    -0.10800
H265        H  0.86507856  0.82231029  0.24139665     0.08900
H266        H  0.83431989  0.84557575  0.35713965     0.06400
H267        H  0.90652663  0.92131484  0.29667799     0.06300
O268        O  0.49546031  0.47933732  0.03529690    -0.88200
C269        C  0.44517971  0.58117056  0.02786551     0.87900
Mg270      Mg  0.52375140  0.46159294  0.08448410     1.58100
O271        O  0.53033720  0.57303891  0.97880725    -0.87900
O272        O  0.50849499  0.48732864  0.97545166    -0.75200
C273        C  0.63607498  0.60224476  0.13107187     0.92900
O274        O  0.45523276  0.52630468  0.10083615    -0.75000
O275        O  0.61977321  0.57399114  0.14578036    -0.82500
Mg276      Mg  0.43965757  0.50022891  0.04297995     1.58000
C277        C  0.61127915  0.65421911  0.98303490     0.92800
O278        O  0.42063532  0.47247725  0.98689742    -0.80800
H279        H  0.56106275  0.54963232  0.93767823    -0.06100
C280        C  0.53825437  0.62161295  0.08259211     0.87800
O281        O  0.58064256  0.47780809  0.05809027    -0.75300
O282        O  0.45708288  0.55101922  0.01502743    -0.88100
O283        O  0.57697640  0.64954052  0.97349160    -0.80900
C284        C  0.46405946  0.63133350  0.93057478     0.93000
C285        C  0.41741122  0.48152504  0.95212902     0.92800
Mg286      Mg  0.60555464  0.58775872  0.04292859     1.58000
O287        O  0.62858028  0.61307230  0.09760876    -0.80800
O288        O  0.59062400  0.56302614  0.98491038    -0.75100
O289        O  0.45515451  0.59723419  0.93676504    -0.80900
O290        O  0.42055582  0.44718560  0.07412687    -0.82600
O291        O  0.59517368  0.48807531  0.14471112    -0.80900
C292        C  0.56051191  0.56177825  0.96569710     0.87200
O293        O  0.58785307  0.53761657  0.07017461    -0.88100
O294        O  0.55034230  0.61052072  0.05166996    -0.88200
O295        O  0.54042184  0.60149711  0.11229920    -0.75200
Mg296      Mg  0.48181020  0.54381016  0.96004651     1.58000
O297        O  0.49085225  0.64727638  0.94824566    -0.82600
H298        H  0.52211427  0.44027212  0.00471927    -0.06300
O299        O  0.51575471  0.51622020  0.10856829    -0.87900
H300        H  0.48427160  0.54173992  0.14787215    -0.06200
H301        H  0.62716392  0.50747955  0.04334106    -0.06300
C302        C  0.48526556  0.52835383  0.12042880     0.87200
C303        C  0.50874999  0.46754249  0.00526129     0.87800
C304        C  0.59993165  0.50781127  0.05696751     0.87900
H305        H  0.52480590  0.64881576  0.08425403    -0.06300
O306        O  0.46464222  0.61120495  0.02680123    -0.75300
Mg307      Mg  0.56676520  0.54380699  0.12643491     1.58000
H308        H  0.41782494  0.58179051  0.04123503    -0.06300
C309        C  0.43639614  0.43039312  0.10164884     0.92800
O310        O  0.55441002  0.44165235  0.13539290    -0.82600
C311        C  0.58502885  0.45397888  0.14895315     0.92900
O312        O  0.43184550  0.51145902  0.93898335    -0.82500
Mg313      Mg  0.52185851  0.62824171  0.00107716     1.58200
O314        O  0.47022357  0.43771331  0.11097048    -0.80900
O315        O  0.62477472  0.63974714  0.01292851    -0.82600
C316        C  0.39524320  0.36625707  0.76815752     0.03300
C317        C  0.37356786  0.33355744  0.76897870    -0.12800
C318        C  0.35348991  0.32382062  0.80181520     0.00800
C319        C  0.35687343  0.34633269  0.83446419    -0.11400
C320        C  0.37925084  0.37879341  0.83394756     0.03300
C321        C  0.39838208  0.38840874  0.80066882    -0.10800
H322        H  0.37013552  0.31747062  0.74315843     0.08900
H323        H  0.34096324  0.33955155  0.85970262     0.06400
H324        H  0.41513000  0.41386247  0.79965104     0.06300
C325        C  0.69223778  0.26622202  0.17367788     0.03300
C326        C  0.72370250  0.26623041  0.19729868    -0.12800
C327        C  0.73474773  0.29931230  0.21585984     0.00800
C328        C  0.71417715  0.33253205  0.21026320    -0.11400
C329        C  0.68260872  0.33262026  0.18660655     0.03300
C330        C  0.67203839  0.29942660  0.16799310    -0.10800
H331        H  0.73846342  0.24006067  0.20238757     0.08900
H332        H  0.72182772  0.35795264  0.22530734     0.06400
H333        H  0.64720228  0.29905269  0.15016557     0.06300
C334        C  0.79479234  0.67255657  0.87158768     0.03300
C335        C  0.76173966  0.67105700  0.89307930    -0.12800
C336        C  0.73011895  0.69231285  0.88295675     0.00800
C337        C  0.73148776  0.71498961  0.85064844    -0.11400
C338        C  0.76444811  0.71666805  0.82862982     0.03300
C339        C  0.79581959  0.69475915  0.83895678    -0.10800
H340        H  0.76090443  0.65375645  0.91830790     0.08900
H341        H  0.70727043  0.73202845  0.84338942     0.06400
H342        H  0.82183817  0.69664460  0.82307009     0.06300
O343        O  0.03165760  0.56798094  0.08748038    -0.88200
C344        C  0.02149630  0.61848569  0.98439067     0.87900
Mg345      Mg  0.08167921  0.54061853  0.10527264     1.58100
O346        O  0.97460058  0.53222945  0.99364670    -0.87900
O347        O  0.97205466  0.55482297  0.08003505    -0.75200
C348        C  0.12944584  0.43384148  0.95987624     0.92900
O349        O  0.09595142  0.60990549  0.04020198    -0.75000
O350        O  0.14484812  0.44956786  0.98825828    -0.82500
Mg351      Mg  0.03803104  0.62376762  0.06601784     1.58000
C352        C  0.98115624  0.45134727  0.91209017     0.92800
O353        O  0.98242478  0.64291913  0.09326840    -0.80800
H354        H  0.93572767  0.50036873  0.01900954    -0.06100
C355        C  0.07714995  0.52898303  0.94426992     0.87800
O356        O  0.05711940  0.48330995  0.08880269    -0.75300
O357        O  0.01034679  0.60563128  0.01492867    -0.88100
O358        O  0.97017081  0.48522183  0.91638586    -0.80900
C359        C  0.92432499  0.59756262  0.93532918     0.93000
C360        C  0.94803730  0.64637897  0.08368116     0.92800
Mg361      Mg  0.04118340  0.45988911  0.97855568     1.58000
O362        O  0.09528429  0.44000355  0.95125233    -0.80800
O363        O  0.98363057  0.47260498  0.00497999    -0.75100
O364        O  0.93187128  0.60641296  0.96937225    -0.80900
O365        O  0.06791186  0.64287596  0.11965869    -0.82600
O366        O  0.14556007  0.47237071  0.07628863    -0.80900
C367        C  0.96321738  0.50182545  0.00598352     0.87200
O368        O  0.06900633  0.47774625  0.02841356    -0.88100
O369        O  0.04707796  0.51523737  0.95537057    -0.88200
O370        O  0.10707396  0.52761198  0.96408647    -0.75200
Mg371      Mg  0.95591154  0.58063149  0.02287147     1.58000
O372        O  0.94138783  0.57077754  0.91869074    -0.82600
H373        H  0.00167182  0.54155183  0.12723006    -0.06300
O374        O  0.10531340  0.54984481  0.05037850    -0.87900
H375        H  0.14383700  0.58242851  0.02540484    -0.06200
H376        H  0.04450971  0.43673868  0.05818487    -0.06300
C377        C  0.11640131  0.58060921  0.03848011     0.87200
C378        C  0.00193464  0.55466792  0.09968340     0.87800
C379        C  0.05679925  0.46451460  0.05829373     0.87900
H380        H  0.07782465  0.54326534  0.91730035    -0.06300
O381        O  0.01957511  0.59956323  0.95387069    -0.75300
Mg382      Mg  0.12415902  0.50064670  0.02104453     1.58000
H383        H  0.03381173  0.64624810  0.98374260    -0.06300
C384        C  0.09590348  0.62802063  0.13639291     0.92800
O385        O  0.13345063  0.51052918  0.12479679    -0.82600
C386        C  0.14945276  0.48172968  0.11094454     0.92900
O387        O  0.93489700  0.63091492  0.05416089    -0.82500
Mg388      Mg  0.99552355  0.54145508  0.93754542     1.58200
O389        O  0.10680725  0.59472599  0.12913544    -0.80900
O390        O  0.01120817  0.43933714  0.92717035    -0.82600
C391        C  0.76580923  0.67145931  0.19844155     0.03300
C392        C  0.79769052  0.66843850  0.17555142    -0.12800
C393        C  0.83072695  0.68807563  0.18453420     0.00800
C394        C  0.83167046  0.71080094  0.21686894    -0.11400
C395        C  0.79974914  0.71407826  0.24008709     0.03300
C396        C  0.76695000  0.69382386  0.23092859    -0.10800
H397        H  0.79645632  0.65125111  0.15023402     0.08900
H398        H  0.85686101  0.72676545  0.22321516     0.06400
H399        H  0.74161932  0.69697076  0.24771855     0.06300
C400        C  0.18284249  0.38040113  0.29970655     0.03300
C401        C  0.20349776  0.34696023  0.29977050    -0.12800
C402        C  0.22114139  0.33442278  0.26653211     0.00800
C403        C  0.21770866  0.35568607  0.23313982    -0.11400
C404        C  0.19705282  0.38919677  0.23294724     0.03300
C405        C  0.17964663  0.40135374  0.26637604    -0.10800
H406        H  0.20623986  0.33118926  0.32584278     0.08900
H407        H  0.23143237  0.34649500  0.20736146     0.06400
H408        H  0.16342808  0.42716635  0.26648516     0.06300
C409        C  0.86957317  0.26676253  0.89296423     0.03300
C410        C  0.89260853  0.29866381  0.89379344    -0.12800
C411        C  0.88305571  0.33099949  0.87326518     0.00800
C412        C  0.85003595  0.33102737  0.85166886    -0.11400
C413        C  0.82650785  0.29925950  0.85078740     0.03300
C414        C  0.83610529  0.26739551  0.87219946    -0.10800
H415        H  0.91834570  0.29800619  0.91025499     0.08900
H416        H  0.84331549  0.35541460  0.83465079     0.06400
H417        H  0.81907438  0.24217755  0.87072839     0.06300
O418        O  0.54433566  0.95387263  0.01795302    -0.88200
C419        C  0.55743178  0.05020063  0.95953309     0.87900
Mg420      Mg  0.49570926  0.94437056  0.05148383     1.58100
O421        O  0.61256220  0.04447919  0.04211693    -0.87900
O422        O  0.60543366  0.95708767  0.02639633    -0.75200
C423        C  0.46871804  0.10256857  0.14678595     0.92900
O424        O  0.48107487  0.00652815  0.97924010    -0.75000
O425        O  0.45072070  0.07323243  0.13699702    -0.82500
Mg426      Mg  0.53371033  0.97371222  0.96156094     1.58000
C427        C  0.61825049  0.13656851  0.11256199     0.92800
O428        O  0.58300012  0.94076781  0.93669914    -0.80800
H429        H  0.65192549  0.01872451  0.07314480    -0.06100
C430        C  0.51546115  0.10335062  0.05107477     0.87800
O431        O  0.52743988  0.96216795  0.10532034    -0.75300
O432        O  0.56789998  0.02054166  0.97426912    -0.88100
O433        O  0.62484955  0.12676319  0.07858898    -0.80900
C434        C  0.65254872  0.09428364  0.96309060     0.93000
C435        C  0.61758159  0.94631775  0.92914535     0.92800
Mg436      Mg  0.55462613  0.07193856  0.11989458     1.58000
O437        O  0.50373065  0.10617971  0.13994699    -0.80800
O438        O  0.60832100  0.03956324  0.10380095    -0.75100
O439        O  0.64538478  0.05945623  0.95948050    -0.80900
O440        O  0.49497296  0.92565971  0.94709334    -0.82600
O441        O  0.43849749  0.98562594  0.12083651    -0.80900
C442        C  0.62562823  0.03401804  0.07280669     0.87200
O443        O  0.52073844  0.02340111  0.10945338    -0.88100
O444        O  0.54502235  0.08921355  0.06268944    -0.88200
O445        O  0.48394671  0.08733257  0.05593931    -0.75200
Mg446      Mg  0.62376146  0.00987634  0.99413697     1.58000
O447        O  0.64298496  0.11247749  0.99248787    -0.82600
H448        H  0.57312946  0.91402866  0.04537999    -0.06300
O449        O  0.47783267  0.00077440  0.04072469    -0.87900
H450        H  0.43834560  0.02760166  0.01084431    -0.06200
H451        H  0.54734118  0.99335839  0.14906780    -0.06300
C452        C  0.46439070  0.01189652  0.01050505     0.87200
C453        C  0.57407572  0.94027657  0.03001971     0.87800
C454        C  0.53203901  0.99319752  0.12262838     0.87900
H455        H  0.51659756  0.12942066  0.03544879    -0.06300
O456        O  0.56216678  0.08161312  0.97577208    -0.75300
Mg457      Mg  0.46503112  0.03477692  0.08831810     1.58000
H458        H  0.54277737  0.04923386  0.93275713    -0.06300
C459        C  0.46552861  0.91639718  0.96526051     0.92800
O460        O  0.44533690  0.93289014  0.08780958    -0.82600
C461        C  0.43013908  0.95138479  0.11449733     0.92900
O462        O  0.63626602  0.97260951  0.94461181    -0.82500
Mg463      Mg  0.59323320  0.10022404  0.02934474     1.58200
O464        O  0.46202171  0.92342837  0.00043034    -0.80900
O465        O  0.59129035  0.12251121  0.13151478    -0.82600
C466        C  0.67553280  0.19087785  0.76466106     0.03300
C467        C  0.67214847  0.16863484  0.79713188    -0.12800
C468        C  0.69054628  0.17898582  0.83066922     0.00800
C469        C  0.71332864  0.21102886  0.83107270    -0.11400
C470        C  0.71658105  0.23361957  0.79889154     0.03300
C471        C  0.69712333  0.22365870  0.76574026    -0.10800
H472        H  0.65481844  0.14358198  0.79630968     0.08900
H473        H  0.72861792  0.21828888  0.85657671     0.06400
H474        H  0.69995006  0.24034334  0.74026169     0.06300
C475        C  0.37177001  0.29941740  0.17290957     0.03300
C476        C  0.39275678  0.26633416  0.16878470    -0.12800
C477        C  0.38246753  0.23333737  0.18806189     0.00800
C478        C  0.35100009  0.23406545  0.21206160    -0.11400
C479        C  0.32924572  0.26678689  0.21575086     0.03300
C480        C  0.33951795  0.29926103  0.19553112    -0.10800
H481        H  0.41724752  0.26650732  0.15051201     0.08900
H482        H  0.34377273  0.20933019  0.22833205     0.06400
H483        H  0.32380498  0.32513641  0.19899692     0.06300
C484        C  0.26382258  0.88991956  0.87704518     0.03300
C485        C  0.29723791  0.89412573  0.89772234    -0.12800
C486        C  0.33012054  0.87530682  0.88646133     0.00800
C487        C  0.32906492  0.85168555  0.85481744    -0.11400
C488        C  0.29571107  0.84708284  0.83415610     0.03300
C489        C  0.26323997  0.86680767  0.84508801    -0.10800
H490        H  0.29769843  0.91254711  0.92215108     0.08900
H491        H  0.35431491  0.83672359  0.84648166     0.06400
H492        H  0.23706696  0.86316289  0.82976506     0.06300
O493        O  0.58797518  0.53472456  0.50196565    -0.88200
C494        C  0.48655867  0.54030203  0.45005316     0.87900
Mg495      Mg  0.60588210  0.48584116  0.53024381     1.58100
O496        O  0.49259927  0.58906743  0.53576696    -0.87900
O497        O  0.57875643  0.59392008  0.51538728    -0.75200
C498        C  0.46315390  0.43638957  0.63894182     0.92900
O499        O  0.54252867  0.46891028  0.45996075    -0.75000
O500        O  0.49134730  0.42156602  0.62250675    -0.82500
Mg501      Mg  0.56761126  0.52689671  0.44539596     1.58000
C502        C  0.41152216  0.58399894  0.61572572     0.92800
O503        O  0.59444509  0.58305083  0.42651074    -0.80800
H504        H  0.51551760  0.62988206  0.56709686    -0.06100
C505        C  0.44535265  0.48595859  0.54185009     0.87800
O506        O  0.58870463  0.51067979  0.58771376    -0.75300
O507        O  0.51626292  0.55338483  0.46285623    -0.88100
O508        O  0.41586851  0.59339212  0.58118763    -0.80900
C509        C  0.43449902  0.63517152  0.46673801     0.93000
C510        C  0.58422285  0.61724060  0.42320239     0.92800
Mg511      Mg  0.47833528  0.52469296  0.61040355     1.58000
O512        O  0.45336218  0.47013564  0.63240096    -0.80800
O513        O  0.50284290  0.58249982  0.59628484    -0.75100
O514        O  0.46916772  0.62942005  0.46024811    -0.80900
O515        O  0.62085046  0.49666164  0.42598457    -0.82600
O516        O  0.57815600  0.42261820  0.59926714    -0.80900
C517        C  0.50368503  0.60192532  0.56625312     0.87200
O518        O  0.52885256  0.49774556  0.59341689    -0.88100
O519        O  0.45605038  0.51653635  0.55463291    -0.88200
O520        O  0.46576393  0.45663563  0.54364321    -0.75200
Mg521      Mg  0.52222178  0.60797694  0.48780575     1.58000
O522        O  0.41742828  0.61828398  0.49346080    -0.82600
H523        H  0.62624095  0.56557090  0.52946559    -0.06300
O524        O  0.55161720  0.46133788  0.52085747    -0.87900
H525        H  0.52790152  0.42167130  0.48860974    -0.06200
H526        H  0.55795026  0.52342631  0.63436392    -0.06300
C527        C  0.54048210  0.44928049  0.48996693     0.87200
C528        C  0.59910479  0.56465882  0.51568677     0.87800
C529        C  0.55831750  0.51075174  0.60659701     0.87900
H530        H  0.41830173  0.48433094  0.52796053    -0.06300
O531        O  0.45596267  0.54095417  0.46880411    -0.75300
Mg532      Mg  0.52297964  0.44223004  0.57072765     1.58000
H533        H  0.48684585  0.52706692  0.42251724    -0.06300
C534        C  0.63736188  0.46936343  0.44223657     0.92800
O535        O  0.62586461  0.43489949  0.56036243    -0.82600
C536        C  0.61249679  0.41899708  0.58947791     0.92900
O537        O  0.55416361  0.62952405  0.43810804    -0.82500
Mg538      Mg  0.43764912  0.56637147  0.52591873     1.58200
O539        O  0.63039221  0.46092550  0.47648951    -0.80900
O540        O  0.42592640  0.55420844  0.62921428    -0.82600
C541        C  0.69244638  0.80369414  0.38883568     0.03300
C542        C  0.72536900  0.80162821  0.36748901    -0.12800
C543        C  0.73586642  0.76767849  0.35017448     0.00800
C544        C  0.71344360  0.73555219  0.35529090    -0.11400
C545        C  0.68064253  0.73738203  0.37726264     0.03300
C546        C  0.67022867  0.77170158  0.39379523    -0.10800
H547        H  0.74189459  0.82688601  0.36331375     0.08900
H548        H  0.72104939  0.70935022  0.34166066     0.06400
H549        H  0.64486574  0.77358371  0.41075581     0.06300
C550        C  0.39093833  0.69562177  0.80098305     0.03300
C551        C  0.36800116  0.72747752  0.80109736    -0.12800
C552        C  0.34654586  0.73668421  0.76899734     0.00800
C553        C  0.34936543  0.71434478  0.73630221    -0.11400
C554        C  0.37252912  0.68253560  0.73603972     0.03300
C555        C  0.39339564  0.67344292  0.76842776    -0.10800
H556        H  0.36524089  0.74363106  0.82695900     0.08900
H557        H  0.33275573  0.72092896  0.71145992     0.06400
H558        H  0.41102814  0.64857460  0.76864418     0.06300
C559        C  0.80113878  0.37907250  0.68860514     0.03300
C560        C  0.79971021  0.36032912  0.72319335    -0.12800
C561        C  0.76585744  0.34414429  0.73540683     0.00800
C562        C  0.73324755  0.34805039  0.71340587    -0.11400
C563        C  0.73450536  0.36730367  0.67899609     0.03300
C564        C  0.76867768  0.38258751  0.66657141    -0.10800
H565        H  0.82529943  0.35695482  0.73954451     0.08900
H566        H  0.70695132  0.33569011  0.72273138     0.06400
H567        H  0.76999385  0.39783767  0.64006577     0.06300
O568        O  0.53428984  0.06856951  0.58800705    -0.88200
C569        C  0.52440791  0.11800572  0.48476554     0.87900
Mg570      Mg  0.58397294  0.04090733  0.60561281     1.58100
O571        O  0.47515909  0.03357427  0.49585821    -0.87900
O572        O  0.47422666  0.05699344  0.58151627    -0.75200
C573        C  0.62793060  0.93176919  0.46164083     0.92900
O574        O  0.59859960  0.10972035  0.53981242    -0.75000
O575        O  0.64361182  0.94808145  0.48950285    -0.82500
Mg576      Mg  0.54117632  0.12422456  0.56645559     1.58000
C577        C  0.47753283  0.95063013  0.41699217     0.92800
O578        O  0.48582218  0.14266697  0.59527331    -0.80800
H579        H  0.43644255  0.00301219  0.52300280    -0.06100
C580        C  0.57663714  0.02715797  0.44490151     0.87800
O581        O  0.55865687  0.98364689  0.59048294    -0.75300
O582        O  0.51298454  0.10611223  0.51562762    -0.88100
O583        O  0.46728112  0.98484247  0.42061927    -0.80900
C584        C  0.42631132  0.10032535  0.43695980     0.93000
C585        C  0.45162406  0.14710711  0.58540146     0.92800
Mg586      Mg  0.54010762  0.95934911  0.48104759     1.58000
O587        O  0.59366848  0.93769452  0.45308144    -0.80800
O588        O  0.48347626  0.97405619  0.50847244    -0.75100
O589        O  0.43466947  0.10938025  0.47073646    -0.80900
O590        O  0.57240804  0.14377162  0.61921776    -0.82600
O591        O  0.64608341  0.97163556  0.57688593    -0.80900
C592        C  0.46360155  0.00366701  0.50924735     0.87200
O593        O  0.56922770  0.97758039  0.52995989    -0.88100
O594        O  0.54652017  0.01396879  0.45659842    -0.88200
O595        O  0.60678351  0.02588841  0.46440132    -0.75200
Mg596      Mg  0.45810985  0.08288435  0.52425345     1.58000
O597        O  0.44167591  0.07220913  0.42082486    -0.82600
H598        H  0.50425881  0.04286411  0.62820656    -0.06300
O599        O  0.60690705  0.04953037  0.55034325    -0.87900
H600        H  0.64576166  0.08118707  0.52464247    -0.06200
H601        H  0.54519070  0.93689159  0.56053775    -0.06300
C602        C  0.61845372  0.08000102  0.53806532     0.87200
C603        C  0.50443487  0.05595238  0.60066216     0.87800
C604        C  0.55759876  0.96461344  0.56016782     0.87900
H605        H  0.57715123  0.04093481  0.41766338    -0.06300
O606        O  0.52145926  0.09870855  0.45452859    -0.75300
Mg607      Mg  0.62443162  0.99968072  0.52153807     1.58000
H608        H  0.53779607  0.14524669  0.48356373    -0.06300
C609        C  0.60042595  0.12839124  0.63541696     0.92800
O610        O  0.63556477  0.01068479  0.62493543    -0.82600
C611        C  0.65046282  0.98115483  0.61143625     0.92900
O612        O  0.43885346  0.13403529  0.55463427    -0.82500
Mg613      Mg  0.49516396  0.04112789  0.43941230     1.58200
O614        O  0.60989795  0.09466911  0.62828769    -0.80900
O615        O  0.50820503  0.93863724  0.43088963    -0.82600
C616        C  0.36948110  0.76243438  0.39041502     0.03300
C617        C  0.39070331  0.79526166  0.39499508    -0.12800
C618        C  0.38189799  0.82798281  0.37478431     0.00800
C619        C  0.35089759  0.82789697  0.35023907    -0.11400
C620        C  0.32906674  0.79521042  0.34570070     0.03300
C621        C  0.33832573  0.76265920  0.36630220    -0.10800
H622        H  0.41468938  0.79503543  0.41395897     0.08900
H623        H  0.34432042  0.85298764  0.33420420     0.06400
H624        H  0.32268764  0.73685190  0.36207332     0.06300
C625        C  0.26386568  0.17474362  0.69247369     0.03300
C626        C  0.29621824  0.17075620  0.67035500    -0.12800
C627        C  0.32960469  0.18905271  0.68059479     0.00800
C628        C  0.33057563  0.21142691  0.71309204    -0.11400
C629        C  0.29813068  0.21606718  0.73524550     0.03300
C630        C  0.26478442  0.19729068  0.72488837    -0.10800
H631        H  0.29540457  0.15333779  0.64517822     0.08900
H632        H  0.35649749  0.22563641  0.72063047     0.06400
H633        H  0.23927108  0.20083326  0.74131150     0.06300
C634        C  0.68367341  0.87650056  0.79971348     0.03300
C635        C  0.70438726  0.84336080  0.79896708    -0.12800
C636        C  0.72198002  0.83170727  0.76551333     0.00800
C637        C  0.71825085  0.85350765  0.73249169    -0.11400
C638        C  0.69717885  0.88687711  0.73310969     0.03300
C639        C  0.67964988  0.89796932  0.76691732    -0.10800
H640        H  0.70788359  0.82752121  0.82492001     0.08900
H641        H  0.73218922  0.84495252  0.70660927     0.06400
H642        H  0.66301635  0.92348788  0.76790566     0.06300
C643        C  0.32549465  0.29327500  0.80023793     0.80400
N644        N  0.32650902  0.26762515  0.77177933    -0.77900
C645        C  0.29851887  0.24194304  0.76782299     0.82800
N646        N  0.26927525  0.24229991  0.79237311    -0.77800
C647        C  0.26787622  0.26780302  0.82080240     0.82900
N648        N  0.29592979  0.29336935  0.82451358    -0.79600
C649        C  0.68113012  0.89431814  0.66450281    -0.21100
C650        C  0.69292879  0.91039688  0.69883763    -0.09200
C651        C  0.69707596  0.94960534  0.70120612     0.29700
C652        C  0.68606924  0.97236733  0.67114023    -0.21100
C653        C  0.67099907  0.95657233  0.63801444    -0.09200
C654        C  0.67026935  0.91720115  0.63416495     0.29700
F655        F  0.65594640  0.90085933  0.60258127    -0.19700
H656        H  0.67795299  0.86415137  0.66202480     0.18100
H657        H  0.68754861  0.00258908  0.67454372     0.18100
F658        F  0.71031718  0.96604137  0.73323317    -0.19700
C659        C  0.39295985  0.18316437  0.59561578    -0.21100
C660        C  0.42467786  0.16528169  0.61101834    -0.09200
C661        C  0.42662066  0.15918724  0.65027584     0.29700
C662        C  0.39616142  0.16887716  0.67327214    -0.21100
C663        C  0.36351992  0.18434993  0.65731625    -0.09200
C664        C  0.36254000  0.19261406  0.61854441     0.29700
F665        F  0.33163793  0.20861138  0.60270734    -0.19700
H666        H  0.39098484  0.18815012  0.56544135     0.18100
H667        H  0.39712450  0.16224804  0.70316734     0.18100
F668        F  0.45625651  0.14075313  0.66586695    -0.19700
C669        C  0.46834889  0.88839545  0.38661307    -0.21100
C670        C  0.45272338  0.92270189  0.39854243    -0.09200
C671        C  0.41331880  0.92708989  0.39784647     0.29700
C672        C  0.39020060  0.89667856  0.38804571    -0.21100
C673        C  0.40602795  0.86162261  0.37901681    -0.09200
C674        C  0.44537210  0.85817799  0.37699579     0.29700
F675        F  0.46167770  0.82514835  0.36688579    -0.19700
H676        H  0.49857150  0.88433930  0.38634886     0.18100
H677        H  0.35992539  0.89988285  0.38964860     0.18100
F678        F  0.39703089  0.95963360  0.40939543    -0.19700
C679        C  0.67919514  0.88410894  0.45672066    -0.21100
C680        C  0.64884085  0.90316239  0.43988577    -0.09200
C681        C  0.63605949  0.89155330  0.40396817     0.29700
C682        C  0.65151007  0.85982713  0.38678375    -0.21100
C683        C  0.68009571  0.83962251  0.40483953    -0.09200
C684        C  0.69471558  0.85243535  0.43931960     0.29700
F685        F  0.72253340  0.83311228  0.45702448    -0.19700
H686        H  0.68955619  0.89244754  0.48429473     0.18100
H687        H  0.64041783  0.85030000  0.35987817     0.18100
F688        F  0.60791473  0.91013823  0.38594193    -0.19700
C689        C  0.37854534  0.59502349  0.67657781    -0.21100
C690        C  0.39221583  0.60950389  0.64227692    -0.09200
C691        C  0.39346349  0.64872975  0.63711666     0.29700
C692        C  0.38463443  0.67274230  0.66718565    -0.21100
C693        C  0.37451685  0.65792334  0.70252271    -0.09200
C694        C  0.36972002  0.61896890  0.70645843     0.29700
F695        F  0.35815808  0.60399193  0.73981198    -0.19700
H696        H  0.37676333  0.56496238  0.68103421     0.18100
H697        H  0.38817330  0.70276438  0.66364879     0.18100
F698        F  0.40659144  0.66384212  0.60442404    -0.19700
C699        C  0.37771309  0.67480830  0.45114907    -0.21100
C700        C  0.41522149  0.66428258  0.44372622    -0.09200
C701        C  0.43559699  0.68434740  0.41597371     0.29700
C702        C  0.41978763  0.71542510  0.39833983    -0.21100
C703        C  0.38327259  0.72708762  0.40719469    -0.09200
C704        C  0.36167221  0.70588983  0.43275785     0.29700
F705        F  0.32592246  0.71632528  0.44129291    -0.19700
H706        H  0.36124667  0.65981832  0.47203717     0.18100
H707        H  0.43650284  0.73104577  0.37808453     0.18100
F708        F  0.47147831  0.67506725  0.40660345    -0.19700
C709        C  0.64809373  0.63994401  0.40520508    -0.21100
C710        C  0.60884738  0.64453808  0.40401180    -0.09200
C711        C  0.59375827  0.67811155  0.38949112     0.29700
C712        C  0.61750476  0.70739189  0.37893714    -0.21100
C713        C  0.65663441  0.70394183  0.38285177    -0.09200
C714        C  0.67192382  0.66949295  0.39490547     0.29700
F715        F  0.70962082  0.66534568  0.39955354    -0.19700
H716        H  0.66031935  0.61446610  0.41659171     0.18100
H717        H  0.60521395  0.73340453  0.36891440     0.18100
F718        F  0.55597903  0.68325770  0.38689838    -0.19700
C719        C  0.66957681  0.37978699  0.59588996    -0.21100
C720        C  0.63884316  0.39771349  0.61316115    -0.09200
C721        C  0.63736243  0.40038211  0.65278530     0.29700
C722        C  0.66785115  0.38816638  0.67442888    -0.21100
C723        C  0.69993876  0.37316127  0.65679860    -0.09200
C724        C  0.69986689  0.36739002  0.61750236     0.29700
F725        F  0.72971497  0.35118600  0.59988688    -0.19700
H726        H  0.67095078  0.37707408  0.56538270     0.18100
H727        H  0.66745257  0.39278988  0.70472219     0.18100
F728        F  0.60830763  0.41805255  0.67028455    -0.19700
C729        C  0.62569108  0.19539355  0.71518991    -0.21100
C730        C  0.65844939  0.17829061  0.72901829    -0.09200
C731        C  0.67400324  0.14764242  0.70974287     0.29700
C732        C  0.65599202  0.13307579  0.67797787    -0.21100
C733        C  0.62189665  0.14859862  0.66502514    -0.09200
C734        C  0.60733197  0.18064221  0.68340607     0.29700
F735        F  0.57443411  0.19644147  0.67211853    -0.19700
H736        H  0.61358836  0.21921178  0.72991334     0.18100
H737        H  0.66818853  0.10871044  0.66428015     0.18100
F738        F  0.70616384  0.13123438  0.72229693    -0.19700
C739        C  0.40108122  0.88856034  0.96514237    -0.21100
C740        C  0.43323278  0.89972658  0.94478753    -0.09200
C741        C  0.43197815  0.89931398  0.90491870     0.29700
C742        C  0.39860842  0.89018156  0.88623411    -0.21100
C743        C  0.36597904  0.88128343  0.90674182    -0.09200
C744        C  0.36775788  0.87942502  0.94636974     0.29700
F745        F  0.33718906  0.86916306  0.96695592    -0.19700
H746        H  0.40123791  0.88816572  0.99578257     0.18100
H747        H  0.39783214  0.89163615  0.85562806     0.18100
F748        F  0.46217867  0.90971693  0.88385171    -0.19700
C749        C  0.63110820  0.88166526  0.84529525    -0.21100
C750        C  0.66822282  0.89015115  0.83544805    -0.09200
C751        C  0.69004703  0.91322120  0.85885667     0.29700
C752        C  0.67397682  0.92968822  0.89075764    -0.21100
C753        C  0.63591635  0.92327165  0.89967342    -0.09200
C754        C  0.61496003  0.89785438  0.87736431     0.29700
F755        F  0.57843282  0.88993281  0.88530381    -0.19700
H756        H  0.61433803  0.86340609  0.82746512     0.18100
H757        H  0.69096429  0.94868101  0.90755358     0.18100
F758        F  0.72639322  0.92099357  0.84992505    -0.19700
C759        C  0.66959602  0.15449702  0.93227873    -0.21100
C760        C  0.66901437  0.11505229  0.93099723    -0.09200
C761        C  0.67873407  0.09670739  0.89699492     0.29700
C762        C  0.68685594  0.11766593  0.86465583    -0.21100
C763        C  0.68528114  0.15703521  0.86561680    -0.09200
C764        C  0.67719776  0.17532923  0.89992242     0.29700
F765        F  0.67404724  0.21331366  0.90168671    -0.19700
H766        H  0.66191609  0.16947744  0.95782506     0.18100
H767        H  0.69358113  0.10310899  0.83858841     0.18100
F768        F  0.67888293  0.05864630  0.89439710    -0.19700
C769        C  0.44431016  0.20055785  0.18069859    -0.21100
C770        C  0.40489691  0.19845215  0.18308838    -0.09200
C771        C  0.38733242  0.16328397  0.17831980     0.29700
C772        C  0.40868403  0.13163258  0.16909414    -0.21100
C773        C  0.44783999  0.13432951  0.16400026    -0.09200
C774        C  0.46563161  0.16903555  0.17108333     0.29700
F775        F  0.50339392  0.17322081  0.16696755    -0.19700
H776        H  0.45866864  0.22702539  0.18523197     0.18100
H777        H  0.39414273  0.10537012  0.16397633     0.18100
F778        F  0.34932388  0.15979165  0.17988940    -0.19700
C779        C  0.91816063  0.43012809  0.88951793    -0.21100
C780        C  0.95710480  0.42388020  0.89213230    -0.09200
C781        C  0.97162330  0.38854848  0.88157150     0.29700
C782        C  0.94728146  0.35913203  0.87276388    -0.21100
C783        C  0.90814212  0.36423267  0.87441281    -0.09200
C784        C  0.89375009  0.40053670  0.88085785     0.29700
F785        F  0.85609754  0.40677890  0.88227341    -0.19700
H786        H  0.90628180  0.45709772  0.89722459     0.18100
H787        H  0.95904767  0.33174315  0.86647864     0.18100
F788        F  0.00922750  0.38167177  0.88197572    -0.19700
C789        C  0.85808867  0.68847038  0.11991800    -0.21100
C790        C  0.86352838  0.68536085  0.15909560    -0.09200
C791        C  0.89941745  0.67620230  0.17307825     0.29700
C792        C  0.92831180  0.66682969  0.14798227    -0.21100
C793        C  0.92159557  0.66615408  0.10882279    -0.09200
C794        C  0.88678020  0.67892189  0.09489389     0.29700
F795        F  0.87974437  0.68025141  0.05715222    -0.19700
H796        H  0.83092032  0.69659669  0.10865676     0.18100
H797        H  0.95493783  0.65720936  0.15933764     0.18100
F798        F  0.90565198  0.67303664  0.21082685    -0.19700
C799        C  0.16708105  0.41822432  0.13457313    -0.21100
C800        C  0.17061841  0.45743745  0.13715077    -0.09200
C801        C  0.18865667  0.47318723  0.16883391     0.29700
C802        C  0.19950607  0.45038189  0.19899101    -0.21100
C803        C  0.19270831  0.41156631  0.19799257    -0.09200
C804        C  0.17795337  0.39534328  0.16485587     0.29700
F805        F  0.17085236  0.35790999  0.16311720    -0.19700
H806        H  0.15308934  0.40555726  0.11050422     0.18100
H807        H  0.21160629  0.46325632  0.22397377     0.18100
F808        F  0.19396036  0.51088257  0.17147609    -0.19700
C809        C  0.84937723  0.62819316  0.86429000    -0.21100
C810        C  0.82930330  0.65445284  0.88606769    -0.09200
C811        C  0.84205605  0.66340306  0.92250057     0.29700
C812        C  0.87364495  0.64570949  0.93732771    -0.21100
C813        C  0.89327675  0.61829180  0.91643827    -0.09200
C814        C  0.88102763  0.60992473  0.87939442     0.29700
F815        F  0.89895014  0.58369968  0.85810199    -0.19700
H816        H  0.83992652  0.62115203  0.83602438     0.18100
H817        H  0.88217856  0.65311768  0.96578820     0.18100
F818        F  0.82389566  0.68945405  0.94386444    -0.19700
C819        C  0.66097058  0.19155950  0.10510374    -0.21100
C820        C  0.64124479  0.16695638  0.12919741    -0.09200
C821        C  0.64132321  0.17387224  0.16842158     0.29700
C822        C  0.65965134  0.20547677  0.18284997    -0.21100
C823        C  0.67760006  0.23078383  0.15845418    -0.09200
C824        C  0.67869139  0.22346716  0.11955741     0.29700
F825        F  0.69606038  0.24766788  0.09556493    -0.19700
H826        H  0.66129979  0.18706103  0.07479298     0.18100
H827        H  0.65862110  0.21104825  0.21297515     0.18100
F828        F  0.62305040  0.15068923  0.19273894    -0.19700
C829        C  0.39540455  0.41460376  0.71835541    -0.21100
C830        C  0.40999204  0.38081693  0.73220611    -0.09200
C831        C  0.43939588  0.36290716  0.71281645     0.29700
C832        C  0.45558940  0.38013895  0.68112824    -0.21100
C833        C  0.44233775  0.41522365  0.66834957    -0.09200
C834        C  0.41107175  0.43162152  0.68666264     0.29700
F835        F  0.39629397  0.46484033  0.67501520    -0.19700
H836        H  0.37227680  0.42834408  0.73281370     0.18100
H837        H  0.47942242  0.36675613  0.66758013     0.18100
F838        F  0.45366069  0.32993245  0.72568770    -0.19700
C839        C  0.68562949  0.60373289  0.18150822    -0.21100
C840        C  0.66616350  0.62206464  0.15212704    -0.09200
C841        C  0.67831288  0.65799738  0.14060881     0.29700
C842        C  0.71000074  0.67431506  0.15706033    -0.21100
C843        C  0.73012634  0.65531446  0.18516242    -0.09200
C844        C  0.71758241  0.62015644  0.19781239     0.29700
F845        F  0.73716723  0.60109638  0.22460429    -0.19700
H846        H  0.67717222  0.57595446  0.19066053     0.18100
H847        H  0.71956283  0.70147752  0.14710374     0.18100
F848        F  0.66019337  0.67710100  0.11281205    -0.19700
C849        C  0.63182646  0.67193520  0.91802942    -0.21100
C850        C  0.63743433  0.67387823  0.95736419    -0.09200
C851        C  0.67152018  0.68849183  0.97131241     0.29700
C852        C  0.70074853  0.69702760  0.94648947    -0.21100
C853        C  0.69648908  0.69132302  0.90745807    -0.09200
C854        C  0.66122759  0.68050098  0.89313110     0.29700
F855        F  0.65629395  0.67481373  0.85547925    -0.19700
H856        H  0.60583163  0.66077000  0.90661967     0.18100
H857        H  0.72752211  0.70620369  0.95790569     0.18100
F858        F  0.67744070  0.69235272  0.00907073    -0.19700
C859        C  0.36562937  0.35424676  0.12866960    -0.21100
C860        C  0.38592934  0.33490824  0.15660536    -0.09200
C861        C  0.42061763  0.34920932  0.16877593     0.29700
C862        C  0.43568073  0.38128889  0.15201493    -0.21100
C863        C  0.41667262  0.39979547  0.12242989    -0.09200
C864        C  0.38087429  0.38639418  0.11148409     0.29700
F865        F  0.36114144  0.40343122  0.08345819    -0.19700
H866        H  0.33856264  0.34372884  0.11934771     0.18100
H867        H  0.46297147  0.39093454  0.16160884     0.18100
F868        F  0.44013477  0.33183140  0.19677803    -0.19700
C869        C  0.61979730  0.36268434  0.18878333    -0.21100
C870        C  0.65868862  0.36630160  0.18335388    -0.09200
C871        C  0.67369385  0.40134165  0.17289648     0.29700
C872        C  0.64955449  0.43136465  0.16486611    -0.21100
C873        C  0.61034373  0.42662573  0.16712434    -0.09200
C874        C  0.59576885  0.39248477  0.18085154     0.29700
F875        F  0.55811564  0.38720727  0.18479423    -0.19700
H876        H  0.60787068  0.33617822  0.19791426     0.18100
H877        H  0.66140271  0.45734633  0.15426261     0.18100
F878        F  0.71128931  0.40570442  0.16765015    -0.19700
C879        C  0.40968774  0.63623262  0.88659520    -0.21100
C880        C  0.44347589  0.65158152  0.90042288    -0.09200
C881        C  0.45862517  0.68364488  0.88254461     0.29700
C882        C  0.44084195  0.69888449  0.85066896    -0.21100
C883        C  0.40809990  0.68223088  0.83626745    -0.09200
C884        C  0.39225457  0.65128197  0.85477941     0.29700
F885        F  0.36025049  0.63513318  0.84148037    -0.19700
H886        H  0.39719017  0.61177031  0.89978537     0.18100
H887        H  0.45325974  0.72281915  0.83645744     0.18100
F888        F  0.49149755  0.69905141  0.89448317    -0.19700
C889        C  0.37733139  0.44314061  0.86136769    -0.21100
C890        C  0.38152017  0.40431766  0.86696810    -0.09200
C891        C  0.39147319  0.39101919  0.90305175     0.29700
C892        C  0.40009589  0.41648021  0.93202274    -0.21100
C893        C  0.39918892  0.45541497  0.92525580    -0.09200
C894        C  0.38618653  0.46850418  0.89005726     0.29700
F895        F  0.38376455  0.50586363  0.88267817    -0.19700
H896        H  0.36878739  0.45394148  0.83403514     0.18100
H897        H  0.41014312  0.40569657  0.95883022     0.18100
F898        F  0.39591965  0.35367983  0.90941320    -0.19700
C899        C  0.35090997  0.13196694  0.36689330    -0.21100
C900        C  0.33338712  0.16072845  0.38763484    -0.09200
C901        C  0.34844644  0.17140772  0.42267778     0.29700
C902        C  0.37963455  0.15270801  0.43738558    -0.21100
C903        C  0.39636349  0.12251100  0.41777944    -0.09200
C904        C  0.38204686  0.11275005  0.38186136     0.29700
F905        F  0.39715773  0.08396464  0.36176334    -0.19700
H906        H  0.33960307  0.12350951  0.33973257     0.18100
H907        H  0.38995581  0.16134578  0.46488090     0.18100
F908        F  0.33261841  0.19972459  0.44296184    -0.19700
C909        C  0.89031305  0.91973042  0.43121912    -0.21100
C910        C  0.89182495  0.95877759  0.42569016    -0.09200
C911        C  0.88055451  0.97356216  0.39046604     0.29700
C912        C  0.87168423  0.94956915  0.36056174    -0.21100
C913        C  0.87386880  0.91044368  0.36497229    -0.09200
C914        C  0.88155154  0.89566339  0.40112936     0.29700
F915        F  0.88381967  0.85801641  0.40671648    -0.19700
H916        H  0.89877949  0.90760155  0.45799217     0.18100
H917        H  0.86459762  0.96165583  0.33335761     0.18100
F918        F  0.88010788  0.01120045  0.38416425    -0.19700
C919        C  0.14858747  0.92481862  0.66523283    -0.21100
C920        C  0.10921682  0.92263147  0.66770257    -0.09200
C921        C  0.09254875  0.89116893  0.68493915     0.29700
C922        C  0.11473127  0.86114501  0.69664320    -0.21100
C923        C  0.15380737  0.86188010  0.69128950    -0.09200
C924        C  0.17086474  0.89452131  0.67678591     0.29700
F925        F  0.20859817  0.89592827  0.67090372    -0.19700
H926        H  0.16190575  0.94871769  0.65179999     0.18100
H927        H  0.10121482  0.83656114  0.70855058     0.18100
F928        F  0.05461814  0.88871163  0.68891898    -0.19700
C929        C  0.17424886  0.15619937  0.63910148    -0.21100
C930        C  0.16669268  0.11867664  0.64895028    -0.09200
C931        C  0.18981009  0.10073966  0.67581468     0.29700
C932        C  0.22075598  0.11969409  0.69118602    -0.21100
C933        C  0.22876193  0.15666322  0.68022249    -0.09200
C934        C  0.20498488  0.17509306  0.65464834     0.29700
F935        F  0.21243283  0.21085389  0.64361306    -0.19700
H936        H  0.15688304  0.17062978  0.61853293     0.18100
H937        H  0.23926849  0.10513359  0.71061825     0.18100
F938        F  0.18405867  0.06424643  0.68533078    -0.19700
C939        C  0.13400544  0.16797213  0.41626043    -0.21100
C940        C  0.13792268  0.16992504  0.45576518    -0.09200
C941        C  0.17093815  0.18560882  0.47112891     0.29700
C942        C  0.20068535  0.19582041  0.44755097    -0.21100
C943        C  0.19813875  0.19071206  0.40827983    -0.09200
C944        C  0.16394969  0.17819154  0.39258598     0.29700
F945        F  0.16063500  0.17269809  0.35473096    -0.19700
H946        H  0.10895908  0.15578561  0.40381254     0.18100
H947        H  0.22649950  0.20615622  0.46012848     0.18100
F948        F  0.17526167  0.18920272  0.50913769    -0.19700
C949        C  0.92405345  0.84924342  0.67284754    -0.21100
C950        C  0.89106967  0.83241943  0.65959958    -0.09200
C951        C  0.87107436  0.84913294  0.62975989     0.29700
C952        C  0.88528480  0.88132390  0.61199392    -0.21100
C953        C  0.91934400  0.89744914  0.62417053    -0.09200
C954        C  0.93792707  0.88165608  0.65576820     0.29700
F955        F  0.96999578  0.89695390  0.66990667    -0.19700
H956        H  0.93918838  0.83708620  0.69647638     0.18100
H957        H  0.87033400  0.89280820  0.58794189     0.18100
F958        F  0.83866778  0.83346315  0.61693611    -0.19700
C959        C  0.11430678  0.68510966  0.22475517    -0.21100
C960        C  0.15288904  0.67873310  0.22994785    -0.09200
C961        C  0.17312225  0.65827685  0.20280515     0.29700
C962        C  0.15458967  0.64310282  0.17151741    -0.21100
C963        C  0.11577278  0.64871335  0.16650663    -0.09200
C964        C  0.09580664  0.67049551  0.19303457     0.29700
F965        F  0.05809108  0.67557521  0.18962896    -0.19700
H966        H  0.09844365  0.70073365  0.24569011     0.18100
H967        H  0.17042011  0.62623277  0.15155428     0.18100
F968        F  0.21046960  0.65166372  0.20746859    -0.19700
C969        C  0.70532250  0.43275589  0.36705341    -0.21100
C970        C  0.72804864  0.40898958  0.38904044    -0.09200
C971        C  0.71900968  0.40328854  0.42725792     0.29700
C972        C  0.68888821  0.42218466  0.44359835    -0.21100
C973        C  0.66693947  0.44743842  0.42240294    -0.09200
C974        C  0.67502277  0.45209210  0.38360009     0.29700
F975        F  0.65422306  0.47564907  0.36184464    -0.19700
H976        H  0.71185462  0.43732523  0.33748186     0.18100
H977        H  0.68345664  0.41759608  0.47339219     0.18100
F978        F  0.73974420  0.37966661  0.44906961    -0.19700
C979        C  0.18058066  0.71375574  0.63625369    -0.21100
C980        C  0.16952392  0.72484989  0.67253654    -0.09200
C981        C  0.14268700  0.70388747  0.69239193     0.29700
C982        C  0.12586767  0.67283007  0.67531535    -0.21100
C983        C  0.13539729  0.66249053  0.63805319    -0.09200
C984        C  0.16375982  0.68275202  0.61899288     0.29700
F985        F  0.17428293  0.67369890  0.58321326    -0.19700
H986        H  0.20132975  0.72995116  0.62081966     0.18100
H987        H  0.10427077  0.65784533  0.69079573     0.18100
F988        F  0.13173597  0.71438390  0.72765918    -0.19700
C989        C  0.90696628  0.62946976  0.67266400    -0.21100
C990        C  0.94646509  0.62917939  0.67120857    -0.09200
C991        C  0.96626848  0.66207920  0.68132944     0.29700
C992        C  0.94675749  0.69503874  0.68990169    -0.21100
C993        C  0.90733293  0.69586628  0.68879314    -0.09200
C994        C  0.88751329  0.66244809  0.68115886     0.29700
F995        F  0.84934990  0.66217190  0.67920176    -0.19700
H996        H  0.89092527  0.60473918  0.66497596     0.17300
H997        H  0.96252402  0.72024896  0.69653982     0.18100
F998        F  0.00447203  0.66308398  0.68131816    -0.19700
C999        C  0.16897544  0.42466888  0.39562951    -0.21100
C1000       C  0.12964490  0.42885455  0.39656819    -0.09200
C1001       C  0.10789412  0.41388526  0.36682136     0.29700
C1002       C  0.12546553  0.39706242  0.33585415    -0.21100
C1003       C  0.16472900  0.39412423  0.33443805    -0.09200
C1004       C  0.18643852  0.40710362  0.36492385     0.29700
F1005       F  0.22455325  0.40458687  0.36402313    -0.19700
H1006       H  0.18625816  0.43579169  0.41826485     0.18100
H1007       H  0.10849092  0.38712266  0.31242776     0.18100
F1008       F  0.06985184  0.41748633  0.36644900    -0.19700
C1009       C  0.17552412  0.68001244  0.40082535    -0.21100
C1010       C  0.18191853  0.66075370  0.36673736    -0.09200
C1011       C  0.18175813  0.62127958  0.36677697     0.29700
C1012       C  0.17252787  0.60163811  0.39963804    -0.21100
C1013       C  0.16331693  0.62087980  0.43318302    -0.09200
C1014       C  0.16634754  0.66039060  0.43381698     0.29700
F1015       F  0.15861982  0.68032807  0.46563980    -0.19700
H1016       H  0.17590311  0.71043767  0.40152962     0.18100
H1017       H  0.17111198  0.57126885  0.39827697     0.18100
F1018       F  0.18993628  0.60165661  0.33486133    -0.19700
C1019       C  0.85529211  0.37450332  0.64526038    -0.21100
C1020       C  0.83679768  0.39376580  0.67427667    -0.09200
C1021       C  0.85066455  0.42833517  0.68702375     0.29700
C1022       C  0.88164460  0.44462424  0.66912845    -0.21100
C1023       C  0.89918003  0.42642681  0.63844608    -0.09200
C1024       C  0.88646062  0.39041686  0.62757189     0.29700
F1025       F  0.90283826  0.37119009  0.59874892    -0.19700
H1026       H  0.84476153  0.34761124  0.63550398     0.18100
H1027       H  0.89094144  0.47211708  0.67836969     0.18100
F1028       F  0.83300913  0.44712903  0.71535978    -0.19700
C1029       C  0.89831319  0.38662724  0.38507781    -0.21100
C1030       C  0.86417139  0.38151772  0.40436587    -0.09200
C1031       C  0.86384043  0.38281426  0.44410831     0.29700
C1032       C  0.89645325  0.39216354  0.46386040    -0.21100
C1033       C  0.93004817  0.40016687  0.44443519    -0.09200
C1034       C  0.93106723  0.39569745  0.40482531     0.29700
F1035       F  0.96310652  0.40185433  0.38484538    -0.19700
H1036       H  0.89931311  0.38536648  0.35447515     0.18100
H1037       H  0.89487299  0.39467913  0.49436179     0.18100
F1038       F  0.83183628  0.37574991  0.46386520    -0.19700
C1039       C  0.39386459  0.89421589  0.13290075    -0.21100
C1040       C  0.40054989  0.93294851  0.13738136    -0.09200
C1041       C  0.37647083  0.95399197  0.16105052     0.29700
C1042       C  0.34522206  0.93693023  0.17780065    -0.21100
C1043       C  0.33794072  0.89875488  0.17176746    -0.09200
C1044       C  0.36284667  0.87722770  0.14998503     0.29700
F1045       F  0.35610587  0.84018242  0.14379041    -0.19700
H1046       H  0.41194037  0.87720965  0.11511599     0.18100
H1047       H  0.32605615  0.95371575  0.19463083     0.18100
F1048       F  0.38189305  0.99134486  0.16660174    -0.19700
C1049       C  0.90624519  0.13333537  0.38912072    -0.21100
C1050       C  0.93815167  0.15102793  0.40469157    -0.09200
C1051       C  0.95036293  0.18535943  0.38899462     0.29700
C1052       C  0.93233909  0.20008218  0.35697526    -0.21100
C1053       C  0.90228213  0.18068043  0.34022305    -0.09200
C1054       C  0.88866931  0.14782141  0.35712569     0.29700
F1055       F  0.85887532  0.12920192  0.34202004    -0.19700
H1056       H  0.89565785  0.10723456  0.40071923     0.18100
H1057       H  0.94279456  0.22574221  0.34430787     0.18100
F1058       F  0.98066985  0.20373898  0.40327385    -0.19700
C1059       C  0.13415215  0.39324427  0.90278539    -0.21100
C1060       C  0.15003685  0.40562557  0.93710764    -0.09200
C1061       C  0.18249922  0.38749000  0.95093896     0.29700
C1062       C  0.19690891  0.35603879  0.93204205    -0.21100
C1063       C  0.17909121  0.34234911  0.89944208    -0.09200
C1064       C  0.14839199  0.36178910  0.88422020     0.29700
F1065       F  0.13144829  0.34955699  0.85205420    -0.19700
H1066       H  0.10954952  0.40692792  0.89105351     0.18100
H1067       H  0.22084038  0.34125704  0.94382416     0.18100
F1068       F  0.19884241  0.39846915  0.98384234    -0.19700
C1069       C  0.18112522  0.91502452  0.93831561    -0.21100
C1070       C  0.16561281  0.94607434  0.91907905    -0.09200
C1071       C  0.18106796  0.95650277  0.88388471     0.29700
C1072       C  0.21251834  0.93739079  0.86956436    -0.21100
C1073       C  0.22899103  0.90802800  0.89022566    -0.09200
C1074       C  0.21255078  0.89635809  0.92419646     0.29700
F1075       F  0.22725179  0.86713249  0.94396856    -0.19700
H1076       H  0.16970102  0.90572716  0.96513192     0.18100
H1077       H  0.22481123  0.94627666  0.84299227     0.18100
F1078       F  0.16685205  0.98585855  0.86401729    -0.19700
C1079       C  0.16801899  0.88624526  0.17029011    -0.21100
C1080       C  0.20158206  0.87459703  0.15278978    -0.09200
C1081       C  0.20269528  0.87120747  0.11319850     0.29700
C1082       C  0.17200209  0.88251652  0.09148401    -0.21100
C1083       C  0.13956430  0.89725028  0.10874387    -0.09200
C1084       C  0.13711010  0.89751461  0.14846423     0.29700
F1085       F  0.10634075  0.91177929  0.16613638    -0.19700
H1086       H  0.16656433  0.88887914  0.20078648     0.18100
H1087       H  0.17433791  0.88152056  0.06092951     0.18100
F1088       F  0.23400359  0.85825908  0.09541635    -0.19700
C1089       C  0.88050204  0.18158106  0.95637578    -0.21100
C1090       C  0.91579321  0.16799645  0.94440079    -0.09200
C1091       C  0.93358205  0.18544853  0.91330728     0.29700
C1092       C  0.91762754  0.21693483  0.89648150    -0.21100
C1093       C  0.88349784  0.23150639  0.90963979    -0.09200
C1094       C  0.86431206  0.21307982  0.93898155     0.29700
F1095       F  0.83101487  0.22661623  0.95197845    -0.19700
H1096       H  0.86610098  0.16873476  0.98006725     0.18100
H1097       H  0.93234983  0.23049792  0.87336377     0.18100
F1098       F  0.96702554  0.17295004  0.89960379    -0.19700
C1099       C  0.14770791  0.14274974  0.90031973    -0.21100
C1100       C  0.10838132  0.14591615  0.89846321    -0.09200
C1101       C  0.09238740  0.17857675  0.88272988     0.29700
C1102       C  0.11527269  0.20853052  0.87184685    -0.21100
C1103       C  0.15442715  0.20648541  0.87635890    -0.09200
C1104       C  0.17063817  0.17284047  0.88953659     0.29700
F1105       F  0.20837809  0.17010569  0.89486769    -0.19700
H1106       H  0.16061946  0.11805985  0.91265495     0.18100
H1107       H  0.10230747  0.23388934  0.86102119     0.18100
F1108       F  0.05449591  0.18214794  0.87924955    -0.19700
C1109       C  0.93134819  0.86548768  0.20982380    -0.21100
C1110       C  0.90416571  0.88656029  0.22940661    -0.09200
C1111       C  0.89357641  0.92185986  0.21544745     0.29700
C1112       C  0.91123819  0.93670475  0.18369528    -0.21100
C1113       C  0.94028329  0.91698526  0.16519890    -0.09200
C1114       C  0.94953016  0.88060015  0.17800089     0.29700
F1115       F  0.97690637  0.86020604  0.16080220    -0.19700
H1116       H  0.93953456  0.83801383  0.22009399     0.18100
H1117       H  0.90289301  0.96450074  0.17449100     0.18100
F1118       F  0.86646874  0.94237442  0.23300518    -0.19700
C1119       C  0.88249159  0.17121059  0.16878176    -0.21100
C1120       C  0.87470448  0.15549033  0.20442726    -0.09200
C1121       C  0.87322074  0.11617768  0.20795942     0.29700
C1122       C  0.88286355  0.09328663  0.17746161    -0.21100
C1123       C  0.89402573  0.10896969  0.14272550    -0.09200
C1124       C  0.89196743  0.14819182  0.13804335     0.29700
F1125       F  0.90195051  0.16451533  0.10483553    -0.19700
H1126       H  0.88340945  0.20141980  0.16526567     0.18100
H1127       H  0.88335989  0.06314018  0.18166528     0.18100
F1128       F  0.86353680  0.09980382  0.24125163    -0.19700
loop_ 
_geom_bond_atom_site_label_1 
_geom_bond_atom_site_label_2 
_geom_bond_distance 
_geom_bond_site_symmetry_2 
_ccdc_geom_bond_type 
C1            N2   1.357       .  A
C1            N6   1.354       .  A
C1          C188   1.468       .  S
N2            C3   1.355       .  A
C3            N4   1.356       .  A
C3          C338   1.476       .  S
N4            C5   1.358       .  A
C5            N6   1.353       .  A
C5          C636   1.468       .  S
C7            N8   1.355       .  A
C7           N12   1.356       .  A
C7          C177   1.474       .  S
N8            C9   1.356       .  A
C9           N10   1.358       .  A
C9          C620   1.475       .  S
N10          C11   1.359       .  A
C11          N12   1.357       .  A
C11         C113   1.474       .  S
C13          N14   1.354       .  A
C13          N18   1.355       .  A
C13         C543   1.471       .  S
N14          C15   1.355       .  A
C15          N16   1.358       .  A
C15         C261   1.475       .  S
N16          C17   1.360       .  A
C17          N18   1.356       .  A
C17         C395   1.473       .  S
C19          N20   1.359       .  A
C19          N24   1.353       .  A
C19         C479   1.475       .  S
N20          C21   1.359       .  A
C21          N22   1.360       .  A
C21         C254   1.479       .  S
N22          C23   1.358       .  A
C23          N24   1.353       .  A
C23         C402   1.473       .  S
C25          N26   1.354       .  A
C25          N30   1.357       .  A
C25         C168   1.472       .  S
N26          C27   1.357       .  A
C27          N28   1.357       .  A
C27         C327   1.468       .  S
N28          C29   1.355       .  A
C29          N30   1.356       .  A
C29         C104   1.475       .  S
C31          N32   1.358       .  A
C31          N36   1.351       .  A
C31         C470   1.469       .  S
N32          C33   1.357       .  A
C33          N34   1.356       .  A
C33         C413   1.473       .  S
N34          C35   1.354       .  A
C35          N36   1.352       .  A
C35         C561   1.463       .  S
C37          N38   1.353       .  A
C37          N42   1.356       .  A
C37         C488   1.470       .  S
N38          C39   1.354       .  A
C39          N40   1.356       .  A
C39         C243   1.466       .  S
N40          C41   1.357       .  A
C41          N42   1.356       .  A
C41         C552   1.472       .  S
O43         Mg45   2.114   1_546  S
O43         Mg51   2.140       .  S
O43          C78   1.235   1_556  S
C44          O57   1.239   1_655  S
C44          O81   1.274       .  A
C44          H83   1.081       .  S
Mg45         O74   2.143       .  S
Mg45         O89   2.257   1_554  S
Mg45         O85   2.225       .  S
Mg45         O56   2.290   1_565  S
O46         Mg88   2.141       .  S
O46         Mg71   2.117   1_654  S
O46          C67   1.235   1_655  S
O47          C78   1.268       .  A
O47         Mg71   2.290   1_554  S
C48        C1113   1.486       .  S
C48          O50   1.274       .  A
C48          O62   1.272       .  A
O49          C77   1.274       .  A
O49         Mg51   2.312   1_565  S
O50         Mg82   2.291   1_655  S
Mg51         O57   2.151       .  S
Mg51         O65   2.295   1_545  S
Mg51         O53   2.335       .  S
C52        C1123   1.480       .  S
C52          O90   1.269       .  A
C52          O58   1.277       .  A
O53          C60   1.278       .  A
H54          C67   1.081       .  S
C55          O69   1.239   1_565  S
C55          O70   1.274       .  A
C55          H80   1.081       .  S
O56          C79   1.268       .  A
O57         Mg71   2.144       .  S
O58         Mg88   2.331       .  S
C59        C1090   1.483       .  S
C59          O72   1.273       .  A
C59          O64   1.271       .  A
C60        C1100   1.476       .  S
C60          O87   1.269       .  A
Mg61         O68   2.112   1_645  S
Mg61         O69   2.141       .  S
Mg61         O62   2.267   1_545  S
Mg61         O63   2.293   1_655  S
Mg61         O90   2.229       .  S
O63          C67   1.268       .  A
O64         Mg71   2.265   1_655  S
O65          C84   1.274       .  A
O66          C86   1.277       .  A
O66         Mg82   2.331       .  S
O68         Mg82   2.140       .  S
O68          C79   1.235   1_565  S
O69         Mg88   2.150       .  S
O70         Mg82   2.311   1_655  S
Mg71         O87   2.232       .  S
O72         Mg88   2.283   1_556  S
H73          C78   1.080       .  S
O74         Mg82   2.154       .  S
O74          C77   1.239   1_554  S
H75          C77   1.081       .  S
H76          C79   1.081       .  S
O81         Mg88   2.312   1_556  S
C84        C1070   1.484       .  S
C84          O89   1.270       .  A
O85          C86   1.268       .  A
C86        C1083   1.476       .  S
C91        C1063   1.468       .  S
C91          C92   1.401       .  A
C91          C96   1.396       .  A
C92          H97   1.084       .  S
C92          C93   1.404       .  A
C93        C1103   1.480       .  S
C93          C94   1.400       .  A
C94          H98   1.084       .  S
C94          C95   1.404       .  A
C95         C647   1.468       .  S
C95          C96   1.403       .  A
C96          H99   1.084       .  S
C100       C1053   1.472       .  S
C100        C101   1.400       .  A
C100        C105   1.396       .  A
C101        H106   1.084       .  S
C101        C102   1.405       .  A
C102       C1120   1.484       .  S
C102        C103   1.403       .  A
C103        H107   1.083       .  S
C103        C104   1.407       .  A
C104        C105   1.406       .  A
C105        H108   1.084       .  S
C109       C1043   1.467       .  S
C109        C110   1.398       .  A
C109        C114   1.397       .  A
C110        H115   1.084       .  S
C110        C111   1.403       .  A
C111       C1080   1.480       .  S
C111        C112   1.402       .  A
C112        H116   1.084       .  S
C112        C113   1.408       .  A
C113        C114   1.404       .  A
C114        H117   1.084       .  S
O118       Mg120   2.128   1_455  S
O118       Mg126   2.151       .  S
O118        C153   1.238       .  S
C119        O132   1.235       .  S
C119        O156   1.268       .  A
C119        H158   1.081       .  S
Mg120       O149   2.141       .  S
Mg120       O164   2.282       .  S
Mg120       O160   2.232       .  S
Mg120       O131   2.295   1_655  S
O121       Mg163   2.154       .  S
O121       Mg146   2.128       .  S
O121        C142   1.238       .  S
O122        C153   1.271       .  A
O122       Mg146   2.296       .  S
C123        C990   1.480       .  S
C123        O125   1.273       .  A
C123        O137   1.271   1_655  A
O124        C152   1.269       .  A
O124       Mg126   2.295   1_655  S
O125       Mg157   2.265       .  S
Mg126       O132   2.113       .  S
Mg126       O140   2.249   1_455  S
Mg126       O128   2.285       .  S
C127        C983   1.478       .  S
C127        O165   1.269       .  A
C127        O133   1.274       .  A
O128        C135   1.273       .  A
H129        C142   1.081       .  S
C130        O144   1.236       .  S
C130        O145   1.269   1_455  A
C130        H155   1.081       .  S
O131        C154   1.271       .  A
O132       Mg146   2.144       .  S
O133       Mg163   2.291       .  S
C134       C1013   1.484       .  S
C134        O147   1.273       .  A
C134        O139   1.275       .  A
C135       C1000   1.475       .  S
C135        O162   1.272       .  A
Mg136       O143   2.123       .  S
Mg136       O144   2.143       .  S
Mg136       O137   2.274       .  S
Mg136       O138   2.294       .  S
Mg136       O165   2.233       .  S
O138        C142   1.271       .  A
O139       Mg146   2.293       .  S
O140        C159   1.270       .  A
O141        C161   1.275       .  A
O141       Mg157   2.299       .  S
O143       Mg157   2.149   1_455  S
O143        C154   1.237       .  S
O144       Mg163   2.125       .  S
O145       Mg157   2.295       .  S
Mg146       O162   2.254       .  S
O147       Mg163   2.265       .  S
H148        C153   1.081       .  S
O149       Mg157   2.122       .  S
O149        C152   1.236       .  S
H150        C152   1.081       .  S
H151        C154   1.081       .  S
O156       Mg163   2.289       .  S
C159       C1033   1.478       .  S
C159        O164   1.273       .  A
O160        C161   1.269       .  A
C161       C1023   1.478       .  S
C166        C970   1.478       .  S
C166        C167   1.403       .  A
C166        C171   1.401       .  A
C167        H172   1.084       .  S
C167        C168   1.409       .  A
C168        C169   1.402       .  A
C169        H173   1.084       .  S
C169        C170   1.397       .  A
C170       C1030   1.477       .  S
C170        C171   1.399       .  A
C171        H174   1.084       .  S
C175        C960   1.470       .  S
C175        C176   1.398       .  A
C175        C180   1.400       .  A
C176        H181   1.084       .  S
C176        C177   1.404       .  A
C177        C178   1.405       .  A
C178        H182   1.084       .  S
C178        C179   1.402       .  A
C179       C1010   1.481       .  S
C179        C180   1.405       .  A
C180        H183   1.084       .  S
C184        C950   1.471       .  S
C184        C185   1.403       .  A
C184        C189   1.397       .  A
C185        H190   1.084       .  S
C185        C186   1.406       .  A
C186        C993   1.479       .  S
C186        C187   1.399       .  A
C187        H191   1.083       .  S
C187        C188   1.400       .  A
C188        C189   1.403       .  A
C189        H192   1.084       .  S
O193       Mg195   2.112   1_655  S
O193       Mg201   2.140       .  S
O193        C228   1.235   1_655  S
C194        O207   1.239       .  S
C194        O231   1.275       .  A
C194        H233   1.081       .  S
Mg195       O224   2.143   1_565  S
Mg195       O239   2.257   1_455  S
Mg195       O235   2.223       .  S
Mg195       O206   2.288       .  S
O196       Mg238   2.136       .  S
O196       Mg221   2.122   1_455  S
O196        C217   1.236       .  S
O197        C228   1.268       .  A
O197       Mg221   2.291   1_465  S
C198        C930   1.477       .  S
C198        O200   1.272       .  A
C198        O212   1.273       .  A
O199        C227   1.274       .  A
O199       Mg201   2.311   1_545  S
O200       Mg232   2.272       .  S
Mg201       O207   2.153   1_565  S
Mg201       O215   2.294       .  S
Mg201       O203   2.334       .  S
C202        C940   1.477       .  S
C202        O240   1.269       .  A
C202        O208   1.278       .  A
O203        C210   1.278       .  A
H204        C217   1.080       .  S
C205        O219   1.238       .  S
C205        O220   1.273       .  A
C205        H230   1.081       .  S
O206        C229   1.268   1_565  A
O207       Mg221   2.142       .  S
O208       Mg238   2.335       .  S
C209       C1050   1.483       .  S
C209        O222   1.272       .  A
C209        O214   1.271       .  A
C210        C910   1.481       .  S
C210        O237   1.268   1_565  A
Mg211       O218   2.115       .  S
Mg211       O219   2.140       .  S
Mg211       O212   2.284       .  S
Mg211       O213   2.297       .  S
Mg211       O240   2.229       .  S
O213        C217   1.269       .  A
O214       Mg221   2.268       .  S
O215        C234   1.275       .  A
O216        C236   1.275       .  A
O216       Mg232   2.315   1_565  S
O218       Mg232   2.137       .  S
O218        C229   1.235       .  S
O219       Mg238   2.146       .  S
O220       Mg232   2.307       .  S
Mg221       O237   2.230       .  S
O222       Mg238   2.281   1_655  S
H223        C228   1.080       .  S
O224       Mg232   2.149       .  S
O224        C227   1.239   1_455  S
H225        C227   1.081       .  S
H226        C229   1.081       .  S
O231       Mg238   2.316   1_655  S
C234        C953   1.484       .  S
C234        O239   1.269       .  A
O235        C236   1.267       .  A
C236        C920   1.470       .  S
C241        C980   1.462       .  S
C241        C242   1.395       .  A
C241        C246   1.397       .  A
C242        H247   1.084       .  S
C242        C243   1.402       .  A
C243        C244   1.404       .  A
C244        H248   1.084       .  S
C244        C245   1.399       .  A
C245        C923   1.475       .  S
C245        C246   1.402       .  A
C246        H249   1.084       .  S
C250        C900   1.478       .  S
C250        C251   1.401       .  A
C250        C255   1.400       .  A
C251        H256   1.084       .  S
C251        C252   1.404       .  A
C252        C943   1.481       .  S
C252        C253   1.402       .  A
C253        H257   1.084       .  S
C253        C254   1.408       .  A
C254        C255   1.408       .  A
C255        H258   1.084       .  S
C259       C1110   1.477       .  S
C259        C260   1.400       .  A
C259        C264   1.403       .  A
C260        H265   1.084       .  S
C260        C261   1.406       .  A
C261        C262   1.407       .  A
C262        H266   1.083       .  S
C262        C263   1.400       .  A
C263        C913   1.485       .  S
C263        C264   1.404       .  A
C264        H267   1.084       .  S
O268       Mg270   2.106       .  S
O268       Mg276   2.135       .  S
O268        C303   1.235       .  S
C269        O282   1.239       .  S
C269        O306   1.274       .  A
C269        H308   1.081       .  S
Mg270       O299   2.141       .  S
Mg270       O314   2.284       .  S
Mg270       O310   2.220       .  S
Mg270       O281   2.300       .  S
O271       Mg313   2.137   1_556  S
O271       Mg296   2.120       .  S
O271        C292   1.235       .  S
O272        C303   1.268   1_556  A
O272       Mg296   2.289       .  S
C273        C840   1.481       .  S
C273        O275   1.272       .  A
C273        O287   1.272       .  A
O274        C302   1.274       .  A
O274       Mg276   2.312       .  S
O275       Mg307   2.273       .  S
Mg276       O282   2.152       .  S
Mg276       O290   2.289       .  S
Mg276       O278   2.315   1_554  S
C277        C850   1.476       .  S
C277        O315   1.270   1_556  A
C277        O283   1.275       .  A
O278        C285   1.276       .  A
H279        C292   1.080       .  S
C280        O294   1.239       .  S
C280        O295   1.274       .  A
C280        H305   1.081       .  S
O281        C304   1.270       .  A
O282       Mg296   2.148   1_554  S
O283       Mg313   2.315   1_556  S
C284        C880   1.480       .  S
C284        O297   1.272       .  A
C284        O289   1.273       .  A
C285        C893   1.478       .  S
C285        O312   1.271       .  A
Mg286       O293   2.124       .  S
Mg286       O294   2.144       .  S
Mg286       O287   2.283       .  S
Mg286       O288   2.293   1_554  S
Mg286       O315   2.240       .  S
O288        C292   1.268       .  A
O289       Mg296   2.279       .  S
O290        C309   1.273       .  A
O291        C311   1.275       .  A
O291       Mg307   2.318       .  S
O293       Mg307   2.136       .  S
O293        C304   1.235       .  S
O294       Mg313   2.150       .  S
O295       Mg307   2.312       .  S
Mg296       O312   2.243       .  S
O297       Mg313   2.272   1_556  S
H298        C303   1.081       .  S
O299       Mg307   2.156       .  S
O299        C302   1.239       .  S
H300        C302   1.081       .  S
H301        C304   1.081       .  S
O306       Mg313   2.308       .  S
C309        C863   1.489       .  S
C309        O314   1.273       .  A
O310        C311   1.267       .  A
C311        C873   1.473       .  S
C316        C830   1.469       .  S
C316        C317   1.396       .  A
C316        C321   1.397       .  A
C317        H322   1.084       .  S
C317        C318   1.406       .  A
C318        C643   1.475       .  S
C318        C319   1.409       .  A
C319        H323   1.083       .  S
C319        C320   1.403       .  A
C320        C890   1.481       .  S
C320        C321   1.401       .  A
C321        H324   1.085       .  S
C325        C823   1.466       .  S
C325        C326   1.395       .  A
C325        C330   1.397       .  A
C326        H331   1.084       .  S
C326        C327   1.403       .  A
C327        C328   1.404       .  A
C328        H332   1.084       .  S
C328        C329   1.399       .  A
C329        C870   1.474       .  S
C329        C330   1.403       .  A
C330        H333   1.084       .  S
C334        C810   1.477       .  S
C334        C335   1.400       .  A
C334        C339   1.399       .  A
C335        H340   1.085       .  S
C335        C336   1.401       .  A
C336        C853   1.476       .  S
C336        C337   1.400       .  A
C337        H341   1.084       .  S
C337        C338   1.407       .  A
C338        C339   1.409       .  A
C339        H342   1.084       .  S
O343       Mg345   2.122       .  S
O343       Mg351   2.138       .  S
O343        C378   1.235       .  S
C344        O357   1.238   1_556  S
C344        O381   1.273       .  A
C344        H383   1.081       .  S
Mg345       O374   2.140       .  S
Mg345       O389   2.284       .  S
Mg345       O385   2.238       .  S
Mg345       O356   2.293       .  S
O346       Mg388   2.143       .  S
O346       Mg371   2.115   1_556  S
O346        C367   1.235   1_556  S
O347        C378   1.269   1_655  A
O347       Mg371   2.293       .  S
C348       C1060   1.480       .  S
C348        O350   1.272       .  A
C348        O362   1.271       .  A
O349        C377   1.272       .  A
O349       Mg351   2.304       .  S
O350       Mg382   2.277   1_556  S
Mg351       O357   2.155       .  S
Mg351       O365   2.276       .  S
Mg351       O353   2.301   1_455  S
C352        C780   1.477       .  S
C352        O390   1.268   1_655  A
C352        O358   1.276       .  A
O353        C360   1.274       .  A
H354        C367   1.081       .  S
C355        O369   1.239       .  S
C355        O370   1.274       .  A
C355        H380   1.081       .  S
O356        C379   1.269       .  A
O357       Mg371   2.147   1_455  S
O358       Mg388   2.318       .  S
C359        C813   1.486       .  S
C359        O372   1.273       .  A
C359        O364   1.272       .  A
C360        C793   1.472       .  S
C360        O387   1.268       .  A
Mg361       O368   2.118   1_556  S
Mg361       O369   2.144       .  S
Mg361       O362   2.264       .  S
Mg361       O363   2.293   1_456  S
Mg361       O390   2.228       .  S
O363        C367   1.268       .  A
O364       Mg371   2.269   1_556  S
O365        C384   1.272       .  A
O366        C386   1.277       .  A
O366       Mg382   2.325       .  S
O368       Mg382   2.138       .  S
O368        C379   1.235       .  S
O369       Mg388   2.150   1_455  S
O370       Mg382   2.312   1_556  S
Mg371       O387   2.231       .  S
O372       Mg388   2.288       .  S
H373        C378   1.080       .  S
O374       Mg382   2.141       .  S
O374        C377   1.238       .  S
H375        C377   1.081       .  S
H376        C379   1.081       .  S
O381       Mg388   2.311   1_455  S
C384        C963   1.474       .  S
C384        O389   1.273       .  A
O385        C386   1.270       .  A
C386        C800   1.474       .  S
C391        C843   1.469       .  S
C391        C392   1.396       .  A
C391        C396   1.397       .  A
C392        H397   1.084       .  S
C392        C393   1.402       .  A
C393        C790   1.475       .  S
C393        C394   1.400       .  A
C394        H398   1.084       .  S
C394        C395   1.405       .  A
C395        C396   1.408       .  A
C396        H399   1.084       .  S
C400       C1003   1.469       .  S
C400        C401   1.398       .  A
C400        C405   1.399       .  A
C401        H406   1.084       .  S
C401        C402   1.404       .  A
C402        C403   1.408       .  A
C403        H407   1.084       .  S
C403        C404   1.400       .  A
C404        C803   1.478       .  S
C404        C405   1.402       .  A
C405        H408   1.084       .  S
C409       C1093   1.472       .  S
C409        C410   1.400       .  A
C409        C414   1.398       .  A
C410        H415   1.084       .  S
C410        C411   1.403       .  A
C411        C783   1.482       .  S
C411        C412   1.400       .  A
C412        H416   1.083       .  S
C412        C413   1.406       .  A
C413        C414   1.406       .  A
C414        H417   1.084       .  S
O418       Mg420   2.122       .  S
O418       Mg426   2.149   1_554  S
O418        C453   1.238       .  S
C419        O432   1.235       .  S
C419        O456   1.268       .  A
C419        H458   1.081       .  S
Mg420       O449   2.140   1_565  S
Mg420       O464   2.290       .  S
Mg420       O460   2.240       .  S
Mg420       O431   2.300       .  S
O421       Mg463   2.148       .  S
O421       Mg446   2.132   1_554  S
O421        C442   1.238       .  S
O422        C453   1.271       .  A
O422       Mg446   2.293   1_564  S
C423        C773   1.482       .  S
C423        O425   1.272       .  A
C423        O437   1.274       .  A
O424        C452   1.268   1_556  A
O424       Mg426   2.291   1_545  S
O425       Mg457   2.256       .  S
Mg426       O432   2.111   1_565  S
Mg426       O440   2.254       .  S
Mg426       O428   2.283       .  S
C427        C820   1.477       .  S
C427        O465   1.272       .  A
C427        O433   1.272       .  A
O428        C435   1.273       .  A
H429        C442   1.081       .  S
C430        O444   1.235       .  S
C430        O445   1.268       .  A
C430        H455   1.081       .  S
O431        C454   1.273       .  A
O432       Mg446   2.139       .  S
O433       Mg463   2.276       .  S
C434        C760   1.475       .  S
C434        O447   1.270       .  A
C434        O439   1.272       .  A
C435        C753   1.477       .  S
C435        O462   1.271       .  A
Mg436       O443   2.138       .  S
Mg436       O444   2.141       .  S
Mg436       O437   2.292       .  S
Mg436       O438   2.300       .  S
Mg436       O465   2.259       .  S
O438        C442   1.271       .  A
O439       Mg446   2.282       .  S
O440        C459   1.271       .  A
O441        C461   1.274       .  A
O441       Mg457   2.296   1_565  S
O443       Mg457   2.154       .  S
O443        C454   1.239   1_545  S
O444       Mg463   2.116       .  S
O445       Mg457   2.294       .  S
Mg446       O462   2.240   1_545  S
O447       Mg463   2.239   1_556  S
H448        C453   1.081       .  S
O449       Mg457   2.121       .  S
O449        C452   1.236       .  S
H450        C452   1.081       .  S
H451        C454   1.081       .  S
O456       Mg463   2.289   1_556  S
C459        C740   1.480       .  S
C459        O464   1.274   1_556  A
O460        C461   1.270       .  A
C461       C1040   1.480       .  S
C466        C730   1.468       .  S
C466        C467   1.400       .  A
C466        C471   1.397       .  A
C467        H472   1.084       .  S
C467        C468   1.403       .  A
C468        C763   1.474       .  S
C468        C469   1.399       .  A
C469        H473   1.084       .  S
C469        C470   1.398       .  A
C470        C471   1.406       .  A
C471        H474   1.084       .  S
C475        C860   1.477       .  S
C475        C476   1.401       .  A
C475        C480   1.397       .  A
C476        H481   1.084       .  S
C476        C477   1.407       .  A
C477        C770   1.486       .  S
C477        C478   1.404       .  A
C478        H482   1.083       .  S
C478        C479   1.404       .  A
C479        C480   1.408       .  A
C480        H483   1.084       .  S
C484       C1073   1.471       .  S
C484        C485   1.402       .  A
C484        C489   1.397       .  A
C485        H490   1.084       .  S
C485        C486   1.404       .  A
C486        C743   1.477       .  S
C486        C487   1.399       .  A
C487        H491   1.084       .  S
C487        C488   1.402       .  A
C488        C489   1.404       .  A
C489        H492   1.084       .  S
O493       Mg495   2.106       .  S
O493       Mg501   2.144       .  S
O493        C528   1.235       .  S
C494        O507   1.239       .  S
C494        O531   1.273       .  A
C494        H533   1.081       .  S
Mg495       O524   2.142       .  S
Mg495       O539   2.270       .  S
Mg495       O535   2.220       .  S
Mg495       O506   2.297       .  S
O496       Mg538   2.141       .  S
O496       Mg521   2.106       .  S
O496        C517   1.235       .  S
O497        C528   1.268       .  A
O497       Mg521   2.288       .  S
C498        C833   1.482       .  S
C498        O500   1.272       .  A
C498        O512   1.272       .  A
O499        C527   1.273       .  A
O499       Mg501   2.307       .  S
O500       Mg532   2.271       .  S
Mg501       O507   2.144       .  S
Mg501       O515   2.281       .  S
Mg501       O503   2.313       .  S
C502        C690   1.474       .  S
C502        O540   1.271       .  A
C502        O508   1.275       .  A
O503        C510   1.275       .  A
H504        C517   1.081       .  S
C505        O519   1.238       .  S
C505        O520   1.272       .  A
C505        H530   1.081       .  S
O506        C529   1.269       .  A
O507       Mg521   2.144       .  S
O508       Mg538   2.310       .  S
C509        C700   1.485       .  S
C509        O522   1.274       .  A
C509        O514   1.269       .  A
C510        C710   1.473       .  S
C510        O537   1.268       .  A
Mg511       O518   2.121       .  S
Mg511       O519   2.144       .  S
Mg511       O512   2.273       .  S
Mg511       O513   2.290       .  S
Mg511       O540   2.238       .  S
O513        C517   1.268       .  A
O514       Mg521   2.255       .  S
O515        C534   1.272       .  A
O516        C536   1.275       .  A
O516       Mg532   2.313       .  S
O518       Mg532   2.142       .  S
O518        C529   1.236       .  S
O519       Mg538   2.146       .  S
O520       Mg532   2.305       .  S
Mg521       O537   2.228       .  S
O522       Mg538   2.291       .  S
H523        C528   1.081       .  S
O524       Mg532   2.146       .  S
O524        C527   1.238       .  S
H525        C527   1.081       .  S
H526        C529   1.080       .  S
O531       Mg538   2.305       .  S
C534        C973   1.484       .  S
C534        O539   1.272       .  A
O535        C536   1.267       .  A
C536        C720   1.467       .  S
C541        C683   1.465       .  S
C541        C542   1.394       .  A
C541        C546   1.397       .  A
C542        H547   1.084       .  S
C542        C543   1.404       .  A
C543        C544   1.405       .  A
C544        H548   1.083       .  S
C544        C545   1.402       .  A
C545        C713   1.478       .  S
C545        C546   1.403       .  A
C546        H549   1.084       .  S
C550        C883   1.468       .  S
C550        C551   1.396       .  A
C550        C555   1.398       .  A
C551        H556   1.084       .  S
C551        C552   1.406       .  A
C552        C553   1.406       .  A
C553        H557   1.084       .  S
C553        C554   1.400       .  A
C554        C693   1.474       .  S
C554        C555   1.402       .  A
C555        H558   1.084       .  S
C559       C1020   1.461       .  S
C559        C560   1.394       .  A
C559        C564   1.397       .  A
C560        H565   1.084       .  S
C560        C561   1.402       .  A
C561        C562   1.402       .  A
C562        H566   1.084       .  S
C562        C563   1.397       .  A
C563        C723   1.472       .  S
C563        C564   1.401       .  A
C564        H567   1.084       .  S
O568       Mg570   2.115       .  S
O568       Mg576   2.137       .  S
O568        C603   1.236       .  S
C569        O582   1.239       .  S
C569        O606   1.274       .  A
C569        H608   1.081       .  S
Mg570       O599   2.139       .  S
Mg570       O614   2.269       .  S
Mg570       O610   2.233       .  S
Mg570       O581   2.291   1_545  S
O571       Mg613   2.135       .  S
O571       Mg596   2.110       .  S
O571        C592   1.236       .  S
O572        C603   1.269       .  A
O572       Mg596   2.297       .  S
C573        C680   1.476       .  S
C573        O575   1.271       .  A
C573        O587   1.272       .  A
O574        C602   1.273       .  A
O574       Mg576   2.305       .  S
O575       Mg607   2.262       .  S
Mg576       O582   2.155       .  S
Mg576       O590   2.278       .  S
Mg576       O578   2.310       .  S
C577        C670   1.480       .  S
C577        O615   1.269       .  A
C577        O583   1.277       .  A
O578        C585   1.274       .  A
H579        C592   1.081       .  S
C580        O594   1.240       .  S
C580        O595   1.275       .  A
C580        H605   1.081       .  S
O581        C604   1.268       .  A
O582       Mg596   2.140       .  S
O583       Mg613   2.331   1_565  S
C584        C903   1.489       .  S
C584        O597   1.274       .  A
C584        O589   1.272       .  A
C585        C660   1.467       .  S
C585        O612   1.267       .  A
Mg586       O593   2.116       .  S
Mg586       O594   2.140   1_565  S
Mg586       O587   2.278       .  S
Mg586       O588   2.294       .  S
Mg586       O615   2.229       .  S
O588        C592   1.269   1_565  A
O589       Mg596   2.273       .  S
O590        C609   1.272       .  A
O591        C611   1.277       .  A
O591       Mg607   2.328       .  S
O593       Mg607   2.134       .  S
O593        C604   1.235       .  S
O594       Mg613   2.153       .  S
O595       Mg607   2.312   1_545  S
Mg596       O612   2.221       .  S
O597       Mg613   2.295       .  S
H598        C603   1.080       .  S
O599       Mg607   2.137   1_545  S
O599        C602   1.238       .  S
H600        C602   1.081       .  S
H601        C604   1.081       .  S
O606       Mg613   2.314       .  S
C609        C733   1.481       .  S
C609        O614   1.271       .  A
O610        C611   1.269   1_545  A
C611        C653   1.477       .  S
C616        C703   1.475       .  S
C616        C617   1.400       .  A
C616        C621   1.397       .  A
C617        H622   1.084       .  S
C617        C618   1.402       .  A
C618        C673   1.480       .  S
C618        C619   1.402       .  A
C619        H623   1.084       .  S
C619        C620   1.407       .  A
C620        C621   1.408       .  A
C621        H624   1.084       .  S
C625        C933   1.469       .  S
C625        C626   1.397       .  A
C625        C630   1.399       .  A
C626        H631   1.084       .  S
C626        C627   1.401       .  A
C627        C663   1.468       .  S
C627        C628   1.398       .  A
C628        H632   1.084       .  S
C628        C629   1.403       .  A
C629        C645   1.474       .  S
C629        C630   1.409       .  A
C630        H633   1.084       .  S
C634        C750   1.460       .  S
C634        C635   1.390       .  A
C634        C639   1.396       .  A
C635        H640   1.084       .  S
C635        C636   1.400       .  A
C636        C637   1.408       .  A
C637        H641   1.084       .  S
C637        C638   1.404       .  A
C638        C650   1.481       .  S
C638        C639   1.404       .  A
C639        H642   1.084       .  S
C643        N644   1.358       .  A
C643        N648   1.356       .  A
N644        C645   1.358       .  A
C645        N646   1.354       .  A
N646        C647   1.354       .  A
C647        N648   1.356       .  A
C649        H656   1.083       .  S
C649        C650   1.405       .  A
C649        C654   1.401       .  A
C650        C651   1.406       .  A
C651        C652   1.393       .  A
C651        F658   1.358       .  S
C652        H657   1.084   1_565  S
C652        C653   1.404       .  A
C653        C654   1.408       .  A
C654        F655   1.357       .  S
C659        H666   1.084       .  S
C659        C660   1.404       .  A
C659        C664   1.392       .  A
C660        C661   1.406       .  A
C661        C662   1.396       .  A
C661        F668   1.358       .  S
C662        H667   1.083       .  S
C662        C663   1.402       .  A
C663        C664   1.402       .  A
C664        F665   1.358       .  S
C669        H676   1.083       .  S
C669        C670   1.406       .  A
C669        C674   1.392       .  A
C670        C671   1.409       .  A
C671        C672   1.402       .  A
C671        F678   1.357       .  S
C672        H677   1.083       .  S
C672        C673   1.405       .  A
C673        C674   1.405       .  A
C674        F675   1.358       .  S
C679        H686   1.083       .  S
C679        C680   1.406       .  A
C679        C684   1.397       .  A
C680        C681   1.410       .  A
C681        C682   1.394       .  A
C681        F688   1.358       .  S
C682        H687   1.084       .  S
C682        C683   1.399       .  A
C683        C684   1.401       .  A
C684        F685   1.357       .  S
C689        H696   1.083       .  S
C689        C690   1.404       .  A
C689        C694   1.392       .  A
C690        C691   1.409       .  A
C691        C692   1.399       .  A
C691        F698   1.358       .  S
C692        H697   1.083       .  S
C692        C693   1.403       .  A
C693        C694   1.404       .  A
C694        F695   1.358       .  S
C699        H706   1.083       .  S
C699        C700   1.409       .  A
C699        C704   1.404       .  A
C700        C701   1.413       .  A
C701        C702   1.389       .  A
C701        F708   1.358       .  S
C702        H707   1.084       .  S
C702        C703   1.397       .  A
C703        C704   1.406       .  A
C704        F705   1.357       .  S
C709        H716   1.083       .  S
C709        C710   1.405       .  A
C709        C714   1.399       .  A
C710        C711   1.407       .  A
C711        C712   1.392       .  A
C711        F718   1.358       .  S
C712        H717   1.083       .  S
C712        C713   1.402       .  A
C713        C714   1.407       .  A
C714        F715   1.357       .  S
C719        H726   1.084       .  S
C719        C720   1.404       .  A
C719        C724   1.392       .  A
C720        C721   1.405       .  A
C721        C722   1.396       .  A
C721        F728   1.357       .  S
C722        H727   1.083       .  S
C722        C723   1.404       .  A
C723        C724   1.404       .  A
C724        F725   1.358       .  S
C729        H736   1.083       .  S
C729        C730   1.402       .  A
C729        C734   1.401       .  A
C730        C731   1.399       .  A
C731        C732   1.392       .  A
C731        F738   1.358       .  S
C732        H737   1.083       .  S
C732        C733   1.408       .  A
C733        C734   1.410       .  A
C734        F735   1.357       .  S
C739        H746   1.083       .  S
C739        C740   1.407       .  A
C739        C744   1.396       .  A
C740        C741   1.410       .  A
C741        C742   1.395       .  A
C741        F748   1.358       .  S
C742        H747   1.083       .  S
C742        C743   1.404       .  A
C743        C744   1.404       .  A
C744        F745   1.357       .  S
C749        H756   1.083       .  S
C749        C750   1.397       .  A
C749        C754   1.394       .  A
C750        C751   1.400       .  A
C751        C752   1.393       .  A
C751        F758   1.358       .  S
C752        H757   1.083       .  S
C752        C753   1.407       .  A
C753        C754   1.412       .  A
C754        F755   1.357       .  S
C759        H766   1.083       .  S
C759        C760   1.405       .  A
C759        C764   1.390       .  A
C760        C761   1.410       .  A
C761        C762   1.396       .  A
C761        F768   1.358       .  S
C762        H767   1.083       .  S
C762        C763   1.403       .  A
C763        C764   1.405       .  A
C764        F765   1.358       .  S
C769        H776   1.083       .  S
C769        C770   1.405       .  A
C769        C774   1.395       .  A
C770        C771   1.409       .  A
C771        C772   1.396       .  A
C771        F778   1.357       .  S
C772        H777   1.083       .  S
C772        C773   1.406       .  A
C773        C774   1.410       .  A
C774        F775   1.358       .  S
C779        H786   1.083       .  S
C779        C780   1.404       .  A
C779        C784   1.398       .  A
C780        C781   1.409       .  A
C781        C782   1.393       .  A
C781        F788   1.358   1_655  S
C782        H787   1.083       .  S
C782        C783   1.404       .  A
C783        C784   1.408       .  A
C784        F785   1.357       .  S
C789        H796   1.084       .  S
C789        C790   1.403       .  A
C789        C794   1.391       .  A
C790        C791   1.406       .  A
C791        C792   1.397       .  A
C791        F798   1.357       .  S
C792        H797   1.083       .  S
C792        C793   1.405       .  A
C793        C794   1.407       .  A
C794        F795   1.358       .  S
C799        H806   1.083       .  S
C799        C800   1.404       .  A
C799        C804   1.400       .  A
C800        C801   1.406       .  A
C801        C802   1.395       .  A
C801        F808   1.358       .  S
C802        H807   1.083       .  S
C802        C803   1.403       .  A
C803        C804   1.407       .  A
C804        F805   1.357       .  S
C809        H816   1.083       .  S
C809        C810   1.405       .  A
C809        C814   1.405       .  A
C810        C811   1.402       .  A
C811        C812   1.390       .  A
C811        F818   1.358       .  S
C812        H817   1.083       .  S
C812        C813   1.408       .  A
C813        C814   1.411       .  A
C814        F815   1.357       .  S
C819        H826   1.083       .  S
C819        C820   1.409       .  A
C819        C824   1.395       .  A
C820        C821   1.408       .  A
C821        C822   1.396       .  A
C821        F828   1.357       .  S
C822        H827   1.084       .  S
C822        C823   1.401       .  A
C823        C824   1.400       .  A
C824        F825   1.358       .  S
C829        H836   1.084       .  S
C829        C830   1.398       .  A
C829        C834   1.390       .  A
C830        C831   1.402       .  A
C831        C832   1.401       .  A
C831        F838   1.357       .  S
C832        H837   1.083       .  S
C832        C833   1.409       .  A
C833        C834   1.412       .  A
C834        F835   1.358       .  S
C839        H846   1.083       .  S
C839        C840   1.408       .  A
C839        C844   1.401       .  A
C840        C841   1.410       .  A
C841        C842   1.394       .  A
C841        F848   1.358       .  S
C842        H847   1.084       .  S
C842        C843   1.399       .  A
C843        C844   1.402       .  A
C844        F845   1.357       .  S
C849        H856   1.083       .  S
C849        C850   1.406       .  A
C849        C854   1.400       .  A
C850        C851   1.407       .  A
C851        C852   1.393       .  A
C851        F858   1.358   1_556  S
C852        H857   1.084       .  S
C852        C853   1.402       .  A
C853        C854   1.405       .  A
C854        F855   1.357       .  S
C859        H866   1.083       .  S
C859        C860   1.404       .  A
C859        C864   1.405       .  A
C860        C861   1.401       .  A
C861        C862   1.394       .  A
C861        F868   1.358       .  S
C862        H867   1.083       .  S
C862        C863   1.409       .  A
C863        C864   1.412       .  A
C864        F865   1.357       .  S
C869        H876   1.084       .  S
C869        C870   1.401       .  A
C869        C874   1.390       .  A
C870        C871   1.406       .  A
C871        C872   1.399       .  A
C871        F878   1.357       .  S
C872        H877   1.083       .  S
C872        C873   1.406       .  A
C873        C874   1.408       .  A
C874        F875   1.358       .  S
C879        H886   1.083       .  S
C879        C880   1.406       .  A
C879        C884   1.391       .  A
C880        C881   1.412       .  A
C881        C882   1.401       .  A
C881        F888   1.357       .  S
C882        H887   1.083       .  S
C882        C883   1.401       .  A
C883        C884   1.400       .  A
C884        F885   1.358       .  S
C889        H896   1.083       .  S
C889        C890   1.404       .  A
C889        C894   1.393       .  A
C890        C891   1.406       .  A
C891        C892   1.401       .  A
C891        F898   1.357       .  S
C892        H897   1.083       .  S
C892        C893   1.407       .  A
C893        C894   1.407       .  A
C894        F895   1.358       .  S
C899        H906   1.083       .  S
C899        C900   1.404       .  A
C899        C904   1.404       .  A
C900        C901   1.402       .  A
C901        C902   1.393       .  A
C901        F908   1.358       .  S
C902        H907   1.083       .  S
C902        C903   1.410       .  A
C903        C904   1.411       .  A
C904        F905   1.357       .  S
C909        H916   1.083       .  S
C909        C910   1.405       .  A
C909        C914   1.400       .  A
C910        C911   1.410       .  A
C911        C912   1.394       .  A
C911        F918   1.358   1_565  S
C912        H917   1.083       .  S
C912        C913   1.404       .  A
C913        C914   1.409       .  A
C914        F915   1.357       .  S
C919        H926   1.083       .  S
C919        C920   1.404       .  A
C919        C924   1.399       .  A
C920        C921   1.406       .  A
C921        C922   1.391       .  A
C921        F928   1.358       .  S
C922        H927   1.084       .  S
C922        C923   1.401       .  A
C923        C924   1.407       .  A
C924        F925   1.358       .  S
C929        H936   1.083       .  S
C929        C930   1.406       .  A
C929        C934   1.395       .  A
C930        C931   1.409       .  A
C931        C932   1.400       .  A
C931        F938   1.357       .  S
C932        H937   1.083       .  S
C932        C933   1.401       .  A
C933        C934   1.401       .  A
C934        F935   1.358       .  S
C939        H946   1.083       .  S
C939        C940   1.405       .  A
C939        C944   1.402       .  A
C940        C941   1.408       .  A
C941        C942   1.394       .  A
C941        F948   1.358       .  S
C942        H947   1.083       .  S
C942        C943   1.403       .  A
C943        C944   1.408       .  A
C944        F945   1.357       .  S
C949        H956   1.084       .  S
C949        C950   1.397       .  A
C949        C954   1.393       .  A
C950        C951   1.404       .  A
C951        C952   1.401       .  A
C951        F958   1.357       .  S
C952        H957   1.083       .  S
C952        C953   1.407       .  A
C953        C954   1.414       .  A
C954        F955   1.358       .  S
C959        H966   1.083       .  S
C959        C960   1.402       .  A
C959        C964   1.400       .  A
C960        C961   1.402       .  A
C961        C962   1.395       .  A
C961        F968   1.358       .  S
C962        H967   1.083       .  S
C962        C963   1.405       .  A
C963        C964   1.408       .  A
C964        F965   1.357       .  S
C969        H976   1.083       .  S
C969        C970   1.404       .  A
C969        C974   1.405       .  A
C970        C971   1.403       .  A
C971        C972   1.389       .  A
C971        F978   1.358       .  S
C972        H977   1.083       .  S
C972        C973   1.407       .  A
C973        C974   1.411       .  A
C974        F975   1.357       .  S
C979        H986   1.083       .  S
C979        C980   1.398       .  A
C979        C984   1.395       .  A
C980        C981   1.400       .  A
C981        C982   1.394       .  A
C981        F988   1.358       .  S
C982        H987   1.083       .  S
C982        C983   1.408       .  A
C983        C984   1.411       .  A
C984        F985   1.357       .  S
C989        H996   1.083       .  S
C989        C990   1.404       .  A
C989        C994   1.395       .  A
C990        C991   1.412       .  A
C991        C992   1.396       .  A
C991        F998   1.358   1_655  S
C992        H997   1.083       .  S
C992        C993   1.402       .  A
C993        C994   1.408       .  A
C994        F995   1.358       .  S
C999       H1006   1.083       .  S
C999       C1000   1.406       .  A
C999       C1004   1.397       .  A
C1000      C1001   1.409       .  A
C1001      C1002   1.395       .  A
C1001      F1008   1.358       .  S
C1002      H1007   1.084       .  S
C1002      C1003   1.400       .  A
C1003      C1004   1.403       .  A
C1004      F1005   1.357       .  S
C1009      H1016   1.083       .  S
C1009      C1010   1.404       .  A
C1009      C1014   1.398       .  A
C1010      C1011   1.405       .  A
C1011      C1012   1.395       .  A
C1011      F1018   1.358       .  S
C1012      H1017   1.083       .  S
C1012      C1013   1.407       .  A
C1013      C1014   1.411       .  A
C1014      F1015   1.357       .  S
C1019      H1026   1.084       .  S
C1019      C1020   1.397       .  A
C1019      C1024   1.392       .  A
C1020      C1021   1.400       .  A
C1021      C1022   1.396       .  A
C1021      F1028   1.357       .  S
C1022      H1027   1.083       .  S
C1022      C1023   1.408       .  A
C1023      C1024   1.412       .  A
C1024      F1025   1.358       .  S
C1029      H1036   1.083       .  S
C1029      C1030   1.403       .  A
C1029      C1034   1.395       .  A
C1030      C1031   1.405       .  A
C1031      C1032   1.393       .  A
C1031      F1038   1.358       .  S
C1032      H1037   1.083       .  S
C1032      C1033   1.406       .  A
C1033      C1034   1.409       .  A
C1034      F1035   1.357       .  S
C1039      H1046   1.083       .  S
C1039      C1040   1.408       .  A
C1039      C1044   1.395       .  A
C1040      C1041   1.411       .  A
C1041      C1042   1.397       .  A
C1041      F1048   1.357       .  S
C1042      H1047   1.083       .  S
C1042      C1043   1.399       .  A
C1043      C1044   1.401       .  A
C1044      F1045   1.358       .  S
C1049      H1056   1.083       .  S
C1049      C1050   1.409       .  A
C1049      C1054   1.391       .  A
C1050      C1051   1.411       .  A
C1051      C1052   1.402       .  A
C1051      F1058   1.357       .  S
C1052      H1057   1.083       .  S
C1052      C1053   1.403       .  A
C1053      C1054   1.400       .  A
C1054      F1055   1.358       .  S
C1059      H1066   1.083       .  S
C1059      C1060   1.408       .  A
C1059      C1064   1.392       .  A
C1060      C1061   1.409       .  A
C1061      C1062   1.400       .  A
C1061      F1068   1.357       .  S
C1062      H1067   1.083       .  S
C1062      C1063   1.402       .  A
C1063      C1064   1.399       .  A
C1064      F1065   1.358       .  S
C1069      H1076   1.083       .  S
C1069      C1070   1.410       .  A
C1069      C1074   1.391       .  A
C1070      C1071   1.410       .  A
C1071      C1072   1.402       .  A
C1071      F1078   1.357       .  S
C1072      H1077   1.083       .  S
C1072      C1073   1.403       .  A
C1073      C1074   1.399       .  A
C1074      F1075   1.358       .  S
C1079      H1086   1.083       .  S
C1079      C1080   1.406       .  A
C1079      C1084   1.401       .  A
C1080      C1081   1.405       .  A
C1081      C1082   1.393       .  A
C1081      F1088   1.358       .  S
C1082      H1087   1.084       .  S
C1082      C1083   1.405       .  A
C1083      C1084   1.407       .  A
C1084      F1085   1.357       .  S
C1089      H1096   1.083       .  S
C1089      C1090   1.409       .  A
C1089      C1094   1.402       .  A
C1090      C1091   1.412       .  A
C1091      C1092   1.390       .  A
C1091      F1098   1.358       .  S
C1092      H1097   1.084       .  S
C1092      C1093   1.398       .  A
C1093      C1094   1.404       .  A
C1094      F1095   1.357       .  S
C1099      H1106   1.083       .  S
C1099      C1100   1.403       .  A
C1099      C1104   1.399       .  A
C1100      C1101   1.409       .  A
C1101      C1102   1.395       .  A
C1101      F1108   1.358       .  S
C1102      H1107   1.083       .  S
C1102      C1103   1.402       .  A
C1103      C1104   1.408       .  A
C1104      F1105   1.358       .  S
C1109      H1116   1.083       .  S
C1109      C1110   1.405       .  A
C1109      C1114   1.405       .  A
C1110      C1111   1.402       .  A
C1111      C1112   1.390       .  A
C1111      F1118   1.358       .  S
C1112      H1117   1.083       .  S
C1112      C1113   1.408       .  A
C1113      C1114   1.411       .  A
C1114      F1115   1.357       .  S
C1119      H1126   1.083       .  S
C1119      C1120   1.406       .  A
C1119      C1124   1.401       .  A
C1120      C1121   1.406       .  A
C1121      C1122   1.393       .  A
C1121      F1128   1.358       .  S
C1122      H1127   1.083       .  S
C1122      C1123   1.406       .  A
C1123      C1124   1.408       .  A
C1124      F1125   1.357       .  S
