geometry optimzed in LAMMPS
_audit_creation_date              2020-11-30 
_audit_creation_method            'lammps2cif' 
_symmetry_space_group_name_H-M    'P1' 
_symmetry_Int_Tables_number       1 
_symmetry_cell_setting            triclinic 
loop_ 
_symmetry_equiv_pos_as_xyz 
  x,y,z 
_cell_length_a                    44.34109313 
_cell_length_b                    44.61967792336926 
_cell_length_c                    38.057974665740225 
_cell_angle_alpha                 91.18502598106646 
_cell_angle_beta                  87.57175537743504 
_cell_angle_gamma                 89.56670433733804 
loop_ 
_atom_site_label 
_atom_site_type_symbol 
_atom_site_fract_x 
_atom_site_fract_y 
_atom_site_fract_z 
_atom_site_charge 
In1        In  0.43070442  0.41579825  0.13565908     1.36900
C2          C  0.41573903  0.40464596  0.20233990     0.77500
O3          O  0.47437211  0.39282265  0.14662540    -0.60900
O4          O  0.47570116  0.43034694  0.11294808    -0.51800
C5          C  0.40668170  0.38374624  0.08339518     0.70200
O6          O  0.39065260  0.39284072  0.10973272    -0.46700
C7          C  0.42617035  0.47523747  0.13469715     0.74900
O8          O  0.43324604  0.38759723  0.18406035    -0.58500
O9          O  0.41051555  0.45894006  0.11507240    -0.48600
O10         O  0.40222488  0.42406245  0.18516999    -0.55000
C11         C  0.49032222  0.41097085  0.12903614     0.85100
O12         O  0.43402595  0.39043423  0.08467356    -0.56900
O13         O  0.44302037  0.46114200  0.15438612    -0.60200
In14       In  0.42516192  0.41639001  0.30851801     1.36900
C15         C  0.41529245  0.40561132  0.24091862     0.77500
O16         O  0.40141837  0.46029914  0.32524835    -0.60900
O17         O  0.44237255  0.46130556  0.29436222    -0.51800
C18         C  0.38826744  0.38851313  0.35465295     0.70200
O19         O  0.38492274  0.38686562  0.32205409    -0.46700
C20         C  0.48381259  0.40684826  0.31961821     0.74900
O21         O  0.43107444  0.38827957  0.25858071    -0.58500
O22         O  0.46846945  0.42773034  0.33432918    -0.48600
O23         O  0.40245864  0.42665617  0.25851023    -0.55000
C24         C  0.42151020  0.47604453  0.31026216     0.85100
O25         O  0.41061337  0.40375632  0.36334277    -0.56900
O26         O  0.46858782  0.38864020  0.30193240    -0.60200
C27         C  0.35471165  0.36111344  0.44352343     0.86400
C28         C  0.35963050  0.32711589  0.44083209    -0.53800
C29         C  0.34558489  0.31182815  0.46744894     0.09400
C30         C  0.32836952  0.33215135  0.49504227     0.20300
C31         C  0.32038388  0.36569019  0.44630114    -0.54500
C32         C  0.30629033  0.35064692  0.47345815     0.09500
C33         C  0.36530839  0.37015540  0.47977555    -0.54000
C34         C  0.35843549  0.35071317  0.01028942     0.10000
H35         H  0.37274987  0.31604277  0.41950817     0.14600
H36         H  0.32269466  0.31760642  0.02488693     0.00300
H37         H  0.30844036  0.37928507  0.42799085     0.14900
H38         H  0.38174469  0.38773002  0.48358994     0.14700
In39       In  0.41836815  0.06512505  0.13532536     1.36900
C40         C  0.40739977  0.07538208  0.20423997     0.77500
O41         O  0.39654554  0.01971134  0.14133048    -0.60900
O42         O  0.43385916  0.02332948  0.10508235    -0.51800
C43         C  0.38443574  0.09517970  0.09037213     0.70200
O44         O  0.40311216  0.07497007  0.08091753    -0.46700
C45         C  0.47768034  0.07451569  0.13370027     0.74900
O46         O  0.42444538  0.09185729  0.18573704    -0.58500
O47         O  0.46008397  0.09165272  0.11808455    -0.48600
O48         O  0.39332253  0.05596335  0.18689525    -0.55000
C49         C  0.41513123  0.00636828  0.12026529     0.85100
O50         O  0.38280164  0.10016432  0.12308342    -0.56900
O51         O  0.46489068  0.05351244  0.14982330    -0.60200
In52       In  0.42078818  0.06246829  0.30911451     1.36900
C53         C  0.40775928  0.07538463  0.24301648     0.77500
O54         O  0.46355752  0.08778952  0.32336869    -0.60900
O55         O  0.46750341  0.04796259  0.29228827    -0.51800
C56         C  0.39159163  0.08560799  0.36743858     0.70200
O57         O  0.40415434  0.06036533  0.36522485    -0.46700
C58         C  0.41534762  0.00323372  0.31212917     0.74900
O59         O  0.42653519  0.09025310  0.26005692    -0.58500
O60         O  0.43585069  0.01762390  0.32681938    -0.48600
O61         O  0.39253233  0.05721360  0.26126558    -0.55000
C62         C  0.48089297  0.06900701  0.30732768     0.85100
O63         O  0.39280040  0.09972523  0.33899342    -0.56900
O64         O  0.39602396  0.01928600  0.29765521    -0.60200
C65         C  0.35405119  0.12485157  0.00307162     0.86400
C66         C  0.36149639  0.15839775  0.00503550    -0.53800
C67         C  0.35061260  0.18295106  0.47604473     0.09400
C68         C  0.33356875  0.15943420  0.45433418     0.20300
C69         C  0.31935559  0.12355798  0.00452826    -0.54500
C70         C  0.31084285  0.14555122  0.48130048     0.09500
C71         C  0.37011077  0.12317466  0.47435114    -0.54000
C72         C  0.35701452  0.13425820  0.44522303     0.10000
H73         H  0.37493336  0.16826381  0.02541853     0.14600
H74         H  0.32321767  0.16903616  0.43099118     0.00300
H75         H  0.30667925  0.11017680  0.02341327     0.14900
H76         H  0.38778487  0.10619521  0.47314415     0.14700
In77       In  0.07781701  0.41768430  0.15451734     1.36900
C78         C  0.08739411  0.40858522  0.22177327     0.77500
O79         O  0.06795787  0.46353024  0.17655084    -0.60900
O80         O  0.08794775  0.46062874  0.12490171    -0.51800
C81         C  0.11608238  0.38726790  0.11066716     0.70200
O82         O  0.08885895  0.38026052  0.11560302    -0.46700
C83         C  0.01978165  0.40730334  0.14338279     0.74900
O84         O  0.07263585  0.39053374  0.20354163    -0.58500
O85         O  0.03502461  0.42606350  0.12596934    -0.48600
O86         O  0.10079253  0.42867519  0.20462021    -0.55000
C87         C  0.07842082  0.47732222  0.15026762     0.85100
O88         O  0.12437027  0.40868195  0.12981409    -0.56900
O89         O  0.03448115  0.39294442  0.16513043    -0.60200
In90       In  0.06730584  0.42054593  0.32644665     1.36900
C91         C  0.08458918  0.40960267  0.26014911     0.77500
O92         O  0.02578060  0.39463249  0.31254214    -0.60900
O93         O  0.02137129  0.42829373  0.35263102    -0.51800
C94         C  0.09922035  0.39068528  0.37241075     0.70200
O95         O  0.10772396  0.39299479  0.34068487    -0.46700
C96         C  0.06928746  0.48018455  0.32808378     0.74900
O97         O  0.06773477  0.39194593  0.27728438    -0.58500
O98         O  0.05155367  0.46520792  0.30992644    -0.48600
O99         O  0.09516003  0.43093321  0.27791446    -0.55000
C100        C  0.00832495  0.40982242  0.33307038     0.85100
O101        O  0.07440138  0.40338981  0.38052463    -0.56900
O102        O  0.08665957  0.46472770  0.34608589    -0.60200
C103        C  0.12631258  0.35791156  0.45864984     0.86400
C104        C  0.16007266  0.36479944  0.45914976    -0.53800
C105        C  0.17544154  0.34898536  0.48334068     0.09400
C106        C  0.15480939  0.32773304  0.50512798     0.20300
C107        C  0.12459982  0.32393382  0.45316231    -0.54500
C108        C  0.13925035  0.30781940  0.47754995     0.09500
C109        C  0.11433669  0.36368657  0.49639611    -0.54000
C110        C  0.13592948  0.35056707  0.02388519     0.10000
H111        H  0.17080678  0.38011902  0.44082560     0.14600
H112        H  0.17073423  0.31539737  0.02908424     0.00300
H113        H  0.11275047  0.31364647  0.43169220     0.14900
H114        H  0.09560894  0.37879659  0.50344764     0.14700
In115      In  0.08314027  0.06766125  0.13127354     1.36900
C116        C  0.09273759  0.07854845  0.19815852     0.77500
O117        O  0.03966434  0.09244675  0.14536396    -0.60900
O118        O  0.03860083  0.05631349  0.10830283    -0.51800
C119        C  0.11258705  0.09865415  0.08100971     0.70200
O120        O  0.09122185  0.08102494  0.07553720    -0.45900
C121        C  0.08873057  0.00805340  0.12970194     0.74900
O122        O  0.10822499  0.05949201  0.18013739    -0.58500
O123        O  0.06661027  0.02225381  0.14356715    -0.48600
O124        O  0.07577725  0.09494869  0.18086960    -0.55000
C125        C  0.02379873  0.07516434  0.12731224     0.85100
O126        O  0.11951092  0.10051992  0.11270857    -0.56900
O127        O  0.10937608  0.02434924  0.11670537    -0.60200
In128      In  0.07660032  0.06700643  0.30324831     1.36900
C129        C  0.09051491  0.07803797  0.23653886     0.77500
O130        O  0.09840544  0.02333147  0.31974389    -0.60900
O131        O  0.06259170  0.02166045  0.28457094    -0.51800
C132        C  0.10782300  0.09834580  0.34988284     0.70200
O133        O  0.11479004  0.09802854  0.31751453    -0.46700
C134        C  0.01788710  0.07626015  0.31694093     0.74900
O135        O  0.10513867  0.05946126  0.25380059    -0.58500
O136        O  0.03269613  0.05563017  0.33043806    -0.48600
O137        O  0.07075213  0.09305386  0.25422621    -0.55000
C138        C  0.08119122  0.00722568  0.30184498     0.85100
O139        O  0.08525203  0.08268870  0.35807583    -0.56900
O140        O  0.03341885  0.09386858  0.29819145    -0.60200
C141        C  0.13325018  0.12939122  0.43947128     0.86400
C142        C  0.12794522  0.16335579  0.44009887    -0.53800
C143        C  0.14090480  0.17806454  0.46752216     0.09400
C144        C  0.15790581  0.15708966  0.49184162     0.20300
C145        C  0.16763836  0.12535648  0.43947633    -0.54500
C146        C  0.18083982  0.14019374  0.46664310     0.09500
C147        C  0.12169168  0.11936484  0.47565775    -0.54000
C148        C  0.12943763  0.12875750  0.98813010     0.10000
H149        H  0.11560081  0.17470178  0.42015422     0.14600
H150        H  0.16156241  0.16142299  0.01183731     0.00300
H151        H  0.18033203  0.11222420  0.41949651     0.14900
H152        H  0.10377900  0.10306972  0.47882041     0.14700
C153        C  0.12454314  0.11558906  0.37614475    -0.16500
C154        C  0.11782622  0.11250171  0.41057756    -0.31600
H155        H  0.14237901  0.13059904  0.36741037     0.12600
H156        H  0.10026443  0.09680524  0.41839899     0.13100
C157        C  0.12767353  0.11577785  0.05240242    -0.16500
C158        C  0.11771901  0.11295754  0.01968614    -0.31600
H159        H  0.14625160  0.13049719  0.05821592     0.12600
H160        H  0.09919480  0.09767131  0.01531255     0.13100
C161        C  0.11378777  0.25876190  0.46576804    -0.13400
C162        C  0.13903476  0.27445792  0.47734467     0.08800
C163        C  0.16423388  0.25803723  0.48749720    -0.13400
C164        C  0.16465561  0.22671169  0.48486085    -0.13400
C165        C  0.13978209  0.21116257  0.47223357     0.08800
C166        C  0.11417367  0.22750433  0.46318256    -0.13400
H167        H  0.09362302  0.27062860  0.45866785     0.12700
H168        H  0.18398174  0.26924055  0.49632826     0.12700
H169        H  0.18489606  0.21478504  0.49161435     0.12700
H170        H  0.09439052  0.21613238  0.45411837     0.12700
C171        C  0.11689126  0.37432598  0.39776661    -0.16500
C172        C  0.10928415  0.37535139  0.43226435    -0.31600
H173        H  0.13644951  0.36132720  0.38810534     0.12600
H174        H  0.09006067  0.38897320  0.44168457     0.13100
C175        C  0.12530190  0.35238629  0.06097842    -0.16500
C176        C  0.13571669  0.37379414  0.08232065    -0.31600
H177        H  0.10381962  0.34184520  0.06747802     0.12600
H178        H  0.15656858  0.38519804  0.07505823     0.13100
C179        C  0.26522627  0.14359306  0.44381340    -0.13400
C180        C  0.27745702  0.14466556  0.47729515     0.08800
C181        C  0.25749336  0.14449656  0.50709540    -0.13400
C182        C  0.22629372  0.14281734  0.50355733    -0.13400
C183        C  0.21413187  0.14143170  0.47017058     0.08800
C184        C  0.23394119  0.14198721  0.44029176    -0.13400
H185        H  0.27975228  0.14342687  0.42024993     0.12700
H186        H  0.25950529  0.13388875  0.02891220     0.12700
H187        H  0.20537761  0.13472108  0.01978343     0.12700
H188        H  0.22526650  0.14149836  0.41412249     0.12700
C189        C  0.37808251  0.09663447  0.40164612    -0.16500
C190        C  0.36588454  0.12404416  0.40838762    -0.31600
H191        H  0.37951471  0.08103851  0.42302274     0.12600
H192        H  0.36284078  0.13934572  0.38699042     0.13100
C193        C  0.36645762  0.11196919  0.06519292    -0.16500
C194        C  0.36942838  0.10635705  0.03028977    -0.31600
H195        H  0.35152796  0.12987521  0.07519692     0.12600
H196        H  0.38458924  0.08842246  0.02081799     0.13100
C197        C  0.25755974  0.32685522  0.49438506    -0.13400
C198        C  0.27292671  0.35161679  0.48040941     0.08800
C199        C  0.25599125  0.37697855  0.47179185    -0.13400
C200        C  0.22447396  0.37673487  0.47462602    -0.13400
C201        C  0.20894093  0.35103932  0.48593360     0.08800
C202        C  0.22597136  0.32661218  0.49720732    -0.13400
H203        H  0.26973273  0.30704801  0.50182297     0.12700
H204        H  0.26704913  0.39698938  0.46239008     0.12700
H205        H  0.21235897  0.39663909  0.46731995     0.12700
H206        H  0.21518197  0.30676230  0.50686223     0.12700
C207        C  0.32051898  0.26181607  0.46662321    -0.13400
C208        C  0.34691560  0.27876222  0.46875268     0.08800
C209        C  0.37481802  0.26397354  0.47060252    -0.13400
C210        C  0.37616009  0.23268450  0.47185589    -0.13400
C211        C  0.34969671  0.21567495  0.47028796     0.08800
C212        C  0.32192338  0.23044590  0.46701493    -0.13400
H213        H  0.29889198  0.27283613  0.46431860     0.12700
H214        H  0.39546504  0.27671016  0.47182002     0.12700
H215        H  0.39781197  0.22172178  0.47442699     0.12700
H216        H  0.30122622  0.21776832  0.46609803     0.12700
C217        C  0.36805266  0.37356621  0.38055710    -0.16500
C218        C  0.37139450  0.37827160  0.41508695    -0.31600
H219        H  0.35122498  0.35797508  0.37147432     0.12600
H220        H  0.38820297  0.39431464  0.42324272     0.13100
C221        C  0.39570971  0.36791812  0.05203754    -0.16500
C222        C  0.36692426  0.36022289  0.04641487    -0.31600
H223        H  0.41278305  0.36382943  0.03113596     0.12600
H224        H  0.34962154  0.36226585  0.06737098     0.13100
In225      In  0.42010945  0.41584944  0.63623581     1.36900
C226        C  0.40655633  0.39964746  0.70118642     0.77500
O227        O  0.46418214  0.39457914  0.64835594    -0.60900
O228        O  0.46457643  0.43030119  0.61204643    -0.51800
C229        C  0.39867372  0.38456753  0.58225173     0.70200
O230        O  0.42422416  0.39633392  0.58225640    -0.46700
C231        C  0.41150716  0.47523961  0.64058269     0.74900
O232        O  0.42642797  0.38609346  0.68215843    -0.58500
O233        O  0.43073097  0.46122237  0.65726722    -0.48600
O234        O  0.39031611  0.41780548  0.68528032    -0.55000
C235        C  0.47963072  0.41185058  0.62905674     0.85100
O236        O  0.38313900  0.38831332  0.61056091    -0.56900
O237        O  0.39557748  0.45887919  0.62139357    -0.60200
In238      In  0.41684054  0.41052705  0.80642976     1.36900
C239        C  0.40647692  0.39907552  0.73955860     0.77500
O240        O  0.38816697  0.45248599  0.80222072    -0.60900
O241        O  0.42666156  0.45456760  0.83317780    -0.51800
C242        C  0.38695402  0.37793805  0.85423399     0.70200
O243        O  0.38461979  0.37304271  0.82179374    -0.46700
C244        C  0.47693526  0.40677893  0.80538353     0.74900
O245        O  0.42579206  0.38445465  0.75578074    -0.58500
O246        O  0.46061384  0.38818050  0.82177392    -0.48600
O247        O  0.39037121  0.41696803  0.75841773    -0.55000
C248        C  0.40513540  0.46854145  0.82033787     0.85100
O249        O  0.40421696  0.39914721  0.86158540    -0.56900
O250        O  0.46256890  0.42599682  0.78885748    -0.60200
C251        C  0.36062665  0.35117662  0.94622810     0.86400
C252        C  0.36439017  0.31707645  0.94744030    -0.53800
C253        C  0.35020451  0.30461605  0.97610691     0.09400
C254        C  0.33381253  0.32769282  0.00133509     0.20300
C255        C  0.32652431  0.35697067  0.94887845    -0.54500
C256        C  0.31213146  0.34475020  0.97770887     0.09500
C257        C  0.37201340  0.36289860  0.98115745    -0.54000
C258        C  0.35210161  0.35491420  0.50697520     0.10000
H259        H  0.37654791  0.30386986  0.92706402     0.14600
H260        H  0.31767456  0.31975932  0.51719898     0.00300
H261        H  0.31482309  0.36911969  0.92904319     0.14900
H262        H  0.38911630  0.38013557  0.98264483     0.14700
In263      In  0.41863356  0.05815099  0.62987692     1.36900
C264        C  0.39566199  0.06902380  0.69529258     0.77500
O265        O  0.41019242  0.01349676  0.60236369    -0.60900
O266        O  0.43418839  0.01402820  0.64944515    -0.51800
C267        C  0.38636458  0.08491522  0.58114298     0.70200
O268        O  0.37875194  0.06072989  0.59518051    -0.46700
C269        C  0.47796388  0.06894358  0.62342704     0.74900
O270        O  0.38888333  0.04627113  0.67732142    -0.58500
O271        O  0.46429517  0.05381202  0.60082880    -0.48600
O272        O  0.41069975  0.08814773  0.67833785    -0.55000
C273        C  0.42338779  0.99855230  0.62502136     0.85100
O274        O  0.40978535  0.09637292  0.59314020    -0.56900
O275        O  0.46107328  0.08029737  0.64763532    -0.60200
In276      In  0.40389103  0.06014372  0.80115778     1.36900
C277        C  0.39185783  0.07008459  0.73394154     0.77500
O278        O  0.44868572  0.08287468  0.79192244    -0.60900
O279        O  0.44517718  0.05069800  0.83206702    -0.51800
C280        C  0.37005968  0.08631776  0.85442415     0.70200
O281        O  0.36509660  0.06071124  0.84176001    -0.46700
C282        C  0.40816130  0.00037360  0.79933160     0.74900
O283        O  0.38004547  0.04907117  0.75098559    -0.58500
O284        O  0.42760539  0.01725021  0.78523242    -0.48600
O285        O  0.40507757  0.08897835  0.75265236    -0.55000
C286        C  0.46208777  0.06763408  0.81406178     0.85100
O287        O  0.39071929  0.10005577  0.83794099    -0.56900
O288        O  0.38588384  0.01392971  0.81431375    -0.60200
C289        C  0.35883394  0.13786071  0.50923096     0.86400
C290        C  0.36404289  0.17142218  0.50443756    -0.53800
C291        C  0.34808554  0.17505470  0.98023552     0.09400
C292        C  0.32930458  0.15623656  0.95477469     0.20300
C293        C  0.32441344  0.13436302  0.51003143    -0.54500
C294        C  0.30613188  0.13991358  0.97903306     0.09500
C295        C  0.36334962  0.11481206  0.96528584    -0.54000
C296        C  0.35057149  0.13114887  0.93984295     0.10000
H297        H  0.37606764  0.18524982  0.52295714     0.14600
H298        H  0.31942716  0.16988460  0.93407020     0.00300
H299        H  0.31211822  0.12351560  0.53142173     0.14900
H300        H  0.37905482  0.09646091  0.95908101     0.14700
In301      In  0.07729911  0.41763021  0.65354677     1.36900
C302        C  0.08649222  0.40593006  0.72056891     0.77500
O303        O  0.06926261  0.46296202  0.67779913    -0.60900
O304        O  0.08632608  0.46072312  0.62474026    -0.51800
C305        C  0.11343833  0.38703319  0.60743008     0.70200
O306        O  0.08642863  0.38018693  0.61429258    -0.46700
C307        C  0.01902997  0.41082699  0.64206235     0.74900
O308        O  0.06900141  0.39078205  0.70220797    -0.58500
O309        O  0.03492172  0.42990037  0.62604422    -0.48600
O310        O  0.10248682  0.42434703  0.70355769    -0.55000
C311        C  0.07780963  0.47700245  0.65086478     0.85100
O312        O  0.12282288  0.40846054  0.62585083    -0.56900
O313        O  0.03325011  0.39419319  0.66200842    -0.60200
In314      In  0.06848293  0.41654395  0.82647502     1.36900
C315        C  0.08424700  0.40583758  0.75913734     0.77500
O316        O  0.02420665  0.39233567  0.84073632    -0.60900
O317        O  0.02374237  0.42995284  0.80767564    -0.51800
C318        C  0.09902463  0.38636718  0.87431745     0.70200
O319        O  0.09957445  0.37914520  0.84216855    -0.46700
C320        C  0.07410491  0.47526708  0.83715028     0.74900
O321        O  0.06500093  0.39027991  0.77572332    -0.58500
O322        O  0.05244706  0.46052750  0.85028340    -0.48600
O323        O  0.09804049  0.42438294  0.77789531    -0.55000
C324        C  0.00872920  0.40992124  0.82291156     0.85100
O325        O  0.08229222  0.40860977  0.88231949    -0.56900
O326        O  0.09445320  0.45964757  0.82131398    -0.60200
C327        C  0.13145627  0.35821862  0.96136894     0.86400
C328        C  0.16577614  0.36247790  0.95968977    -0.53800
C329        C  0.18088545  0.34683141  0.98438411     0.09400
C330        C  0.15953556  0.32803344  0.00843198     0.20300
C331        C  0.12701894  0.32424099  0.95851934    -0.54500
C332        C  0.14155579  0.30823461  0.98316951     0.09500
C333        C  0.12148123  0.36639273  0.99933677    -0.54000
C334        C  0.12927114  0.34814104  0.52072691     0.10000
H335        H  0.17692403  0.37631416  0.94005218     0.14600
H336        H  0.16625771  0.31506215  0.52555710     0.00300
H337        H  0.11338612  0.31385658  0.93867800     0.14900
H338        H  0.10344198  0.38232149  0.00631104     0.14700
In339      In  0.06478019  0.06996907  0.63574291     1.36900
C340        C  0.07610675  0.08005564  0.70279382     0.77500
O341        O  0.02210667  0.09824051  0.64302892    -0.60900
O342        O  0.02097451  0.05825757  0.61202191    -0.51800
C343        C  0.09700683  0.09133866  0.58069912     0.70200
O344        O  0.09547150  0.10566669  0.60968972    -0.45900
C345        C  0.06845187  0.01078589  0.63943819     0.74900
O346        O  0.09279026  0.06329852  0.68316681    -0.58500
O347        O  0.04462693  0.02531864  0.64753450    -0.48600
O348        O  0.05680323  0.09494060  0.68704911    -0.55000
C349        C  0.00626371  0.07948953  0.62695965     0.85100
O350        O  0.08195605  0.06773976  0.58044546    -0.56900
O351        O  0.09094101  0.02654901  0.63066808    -0.60200
In352      In  0.06268967  0.06427990  0.80780225     1.36900
C353        C  0.07532344  0.07836769  0.74119827     0.77500
O354        O  0.05952647  0.02018757  0.77930819    -0.60900
O355        O  0.06666533  0.01957243  0.83417062    -0.51800
C356        C  0.10080032  0.09097429  0.85090266     0.70200
O357        O  0.07592019  0.10258602  0.84375823    -0.46700
C358        C  0.00372802  0.07211564  0.82340865     0.74900
O359        O  0.09116083  0.05997398  0.75723846    -0.58500
O360        O  0.01947498  0.05308215  0.83855217    -0.48600
O361        O  0.05542126  0.09184139  0.76017542    -0.55000
C362        C  0.06368953  0.00468327  0.80599906     0.85100
O363        O  0.10669794  0.06667848  0.83490124    -0.56900
O364        O  0.01843238  0.08848590  0.80247732    -0.60200
C365        C  0.13056925  0.13961198  0.92581196     0.86400
C366        C  0.12421622  0.17213892  0.93696541    -0.53800
C367        C  0.13584171  0.18033812  0.96839692     0.09400
C368        C  0.15256896  0.15458084  0.98619073     0.20300
C369        C  0.16496886  0.13615659  0.92641017    -0.54500
C370        C  0.17681840  0.14395953  0.95805324     0.09500
C371        C  0.11822357  0.12126514  0.95641777    -0.54000
C372        C  0.13456181  0.13343622  0.50340477     0.10000
H373        H  0.11279407  0.18777861  0.92041894     0.14600
H374        H  0.16803949  0.16892329  0.51431638     0.00300
H375        H  0.17848270  0.12790043  0.90377172     0.14900
H376        H  0.10148599  0.10384858  0.95321023     0.14700
C377        C  0.12053068  0.10317354  0.87765835    -0.16500
C378        C  0.11654521  0.13077104  0.89171632    -0.31600
H379        H  0.13692107  0.08806018  0.88843943     0.12600
H380        H  0.10069321  0.14612325  0.88032542     0.13100
C381        C  0.11422579  0.09973687  0.54850692    -0.16500
C382        C  0.12496845  0.12703805  0.54063235    -0.31600
H383        H  0.11595408  0.08200435  0.52854334     0.12600
H384        H  0.12493355  0.14488932  0.56044926     0.13100
C385        C  0.11163564  0.26120635  0.97709175    -0.13400
C386        C  0.13870739  0.27515225  0.98574727     0.08800
C387        C  0.16319697  0.25714707  0.99492916    -0.13400
C388        C  0.16152255  0.22581409  0.99227512    -0.13400
C389        C  0.13529909  0.21214555  0.98044978     0.08800
C390        C  0.10994204  0.23008104  0.97454033    -0.13400
H391        H  0.09195152  0.27437831  0.97119398     0.12700
H392        H  0.18422668  0.26715264  0.00200354     0.12700
H393        H  0.18141972  0.21248494  0.99692064     0.12700
H394        H  0.08919386  0.22004398  0.96618052     0.12700
C395        C  0.11683416  0.37000698  0.89997338    -0.16500
C396        C  0.11433530  0.37590418  0.93479338    -0.31600
H397        H  0.13194308  0.35221509  0.89006838     0.12600
H398        H  0.09867964  0.39333533  0.94451981     0.13100
C399        C  0.12004630  0.35112814  0.55819129    -0.16500
C400        C  0.13154400  0.37308967  0.57801403    -0.31600
H401        H  0.09873572  0.34099935  0.56630348     0.12600
H402        H  0.15207758  0.38424586  0.56902624     0.13100
C403        C  0.26186149  0.14577980  0.94071506    -0.13400
C404        C  0.27288640  0.14104323  0.97422685     0.08800
C405        C  0.25193285  0.13731525  0.00262606    -0.13400
C406        C  0.22080081  0.13824337  0.99749078    -0.13400
C407        C  0.20989017  0.14308437  0.96389972     0.08800
C408        C  0.23088984  0.14703858  0.93568038    -0.13400
H409        H  0.27705650  0.14803751  0.91797331     0.12700
H410        H  0.26584933  0.14593903  0.53335904     0.12700
H411        H  0.21173170  0.14225293  0.52707869     0.12700
H412        H  0.22351199  0.15134623  0.90951449     0.12700
C413        C  0.35498351  0.09709740  0.88796740    -0.16500
C414        C  0.35772975  0.12498225  0.90171474    -0.31600
H415        H  0.34364882  0.08026972  0.90385793     0.12600
H416        H  0.36763234  0.14267318  0.88597495     0.13100
C417        C  0.36973823  0.09763507  0.55202092    -0.16500
C418        C  0.37398669  0.12578434  0.54108294    -0.31600
H419        H  0.35395940  0.08324047  0.53874028     0.12600
H420        H  0.38900436  0.14037772  0.55527965     0.13100
C421        C  0.26237307  0.32304912  0.99878901    -0.13400
C422        C  0.27869721  0.34680960  0.98387127     0.08800
C423        C  0.26261737  0.37189678  0.97266635    -0.13400
C424        C  0.23106210  0.37236718  0.97417430    -0.13400
C425        C  0.21455892  0.34767538  0.98672804     0.08800
C426        C  0.23069838  0.32344547  0.00013412    -0.13400
H427        H  0.27395246  0.30349389  0.00802161     0.12700
H428        H  0.27442525  0.39112552  0.96223565     0.12700
H429        H  0.21969047  0.39209799  0.96506156     0.12700
H430        H  0.21910161  0.30417411  0.01044576     0.12700
C431        C  0.32253847  0.25618485  0.97475075    -0.13400
C432        C  0.34930198  0.27174073  0.98035347     0.08800
C433        C  0.37574513  0.25551363  0.98647545    -0.13400
C434        C  0.37538594  0.22409847  0.98700668    -0.13400
C435        C  0.34873364  0.20841495  0.98045783     0.08800
C436        C  0.32228147  0.22480672  0.97460317    -0.13400
H437        H  0.30207594  0.26828555  0.96928491     0.12700
H438        H  0.39670732  0.26718051  0.99043510     0.12700
H439        H  0.39608524  0.21203983  0.99159618     0.12700
H440        H  0.30131738  0.21334513  0.97004248     0.12700
C441        C  0.37090265  0.36065193  0.88173246    -0.16500
C442        C  0.37678608  0.36589610  0.91560586    -0.31600
H443        H  0.35417663  0.34421119  0.87451918     0.12600
H444        H  0.39392877  0.38228494  0.92173420     0.13100
C445        C  0.38882011  0.36917848  0.55027912    -0.16500
C446        C  0.36034320  0.36109099  0.54396272    -0.31600
H447        H  0.40597805  0.36724709  0.52908608     0.12600
H448        H  0.34293874  0.36134963  0.56489589     0.13100
In449      In  0.42883338  0.91504027  0.12300459     1.36900
C450        C  0.41740722  0.90040838  0.18943435     0.77500
O451        O  0.47229105  0.92704926  0.14711645    -0.60900
O452        O  0.47466187  0.90941262  0.09480179    -0.51800
C453        C  0.40526188  0.87636129  0.07649594     0.70200
O454        O  0.42799678  0.87064961  0.09378655    -0.46700
C455        C  0.41718163  0.97349180  0.11687092     0.74900
O456        O  0.43758036  0.88734430  0.17043748    -0.58500
O457        O  0.43755554  0.96010269  0.09829764    -0.48600
O458        O  0.40023678  0.91729116  0.17316368    -0.55000
C459        C  0.48876894  0.91898660  0.12082850     0.85100
O460        O  0.39322960  0.90147299  0.08404134    -0.56900
O461        O  0.40072104  0.95651432  0.13526647    -0.60200
In462      In  0.42738734  0.91243550  0.29489596     1.36900
C463        C  0.41754566  0.90056879  0.22786552     0.77500
O464        O  0.39988406  0.95521257  0.28958117    -0.60900
O465        O  0.43635850  0.95545753  0.32376256    -0.51800
C466        C  0.39730976  0.87923491  0.34258488     0.70200
O467        O  0.39431460  0.87567572  0.31006190    -0.46700
C468        C  0.48759997  0.91019579  0.29239412     0.74900
O469        O  0.43712298  0.88651420  0.24429651    -0.58500
O470        O  0.47251248  0.93063416  0.27889931    -0.48600
O471        O  0.40104228  0.91829579  0.24653466    -0.55000
C472        C  0.41640075  0.97040631  0.30925408     0.85100
O473        O  0.41563342  0.89939973  0.35042095    -0.56900
O474        O  0.47196624  0.88973364  0.30638052    -0.60200
C475        C  0.36699468  0.85098200  0.43288202     0.86400
C476        C  0.36920072  0.81665889  0.43263138    -0.53800
C477        C  0.35319635  0.80388036  0.45983527     0.09400
C478        C  0.33669544  0.82672859  0.48509649     0.20300
C479        C  0.33307068  0.85815772  0.43379364    -0.54500
C480        C  0.31677670  0.84547669  0.46105927     0.09500
C481        C  0.37727654  0.86079611  0.46914522    -0.54000
C482        C  0.36324939  0.84354884  0.99921495     0.10000
H483        H  0.38218641  0.80363507  0.41278726     0.14600
H484        H  0.32440649  0.81332730  0.01138372     0.00300
H485        H  0.32297731  0.87130597  0.41363705     0.14900
H486        H  0.39537108  0.87670232  0.47280682     0.14700
In487      In  0.43148397  0.56737253  0.13643560     1.36900
C488        C  0.41523611  0.58019204  0.20322125     0.77500
O489        O  0.44328124  0.52220108  0.15495027    -0.60900
O490        O  0.41118894  0.52413735  0.11525511    -0.51800
C491        C  0.40409605  0.59694412  0.08614678     0.70200
O492        O  0.39118808  0.59208467  0.11558502    -0.46700
C493        C  0.49098215  0.57324815  0.12782915     0.74900
O494        O  0.43405440  0.59585395  0.18603744    -0.58500
O495        O  0.47639911  0.55331726  0.11210458    -0.48600
O496        O  0.40194130  0.56084383  0.18508164    -0.55000
C497        C  0.42643341  0.50798884  0.13489453     0.85100
O498        O  0.43089314  0.58776038  0.08313982    -0.56900
O499        O  0.47499397  0.59149419  0.14651193    -0.60200
In500      In  0.42544329  0.56857097  0.30828565     1.36900
C501        C  0.41325030  0.58029683  0.24187926     0.77500
O502        O  0.46967195  0.59006605  0.29234786    -0.60900
O503        O  0.46935681  0.55651345  0.33138302    -0.51800
C504        C  0.40028253  0.59950123  0.36368514     0.70200
O505        O  0.42802683  0.59549332  0.35789456    -0.46700
C506        C  0.42170754  0.50888751  0.31058656     0.74900
O507        O  0.42778614  0.59823111  0.26059960    -0.58500
O508        O  0.44287754  0.52265995  0.29527725    -0.48600
O509        O  0.40102307  0.55923798  0.25854219    -0.55000
C510        C  0.48477223  0.57403338  0.31233376     0.85100
O511        O  0.38423857  0.58898804  0.33982472    -0.56900
O512        O  0.40170931  0.52558750  0.32554860    -0.60200
C513        C  0.34565130  0.62673389  0.02276860     0.86400
C514        C  0.35557667  0.65860498  0.01432861    -0.53800
C515        C  0.35045442  0.67546690  0.47873588     0.09400
C516        C  0.33100214  0.65351874  0.45752016     0.20300
C517        C  0.31112800  0.62835570  0.02487404    -0.54500
C518        C  0.30949558  0.63953202  0.48565053     0.09500
C519        C  0.36721268  0.61506823  0.47207973    -0.54000
C520        C  0.35303230  0.62814279  0.44509645     0.10000
H521        H  0.36956389  0.67159549  0.03164317     0.14600
H522        H  0.31953920  0.66424644  0.43562235     0.00300
H523        H  0.29788158  0.62096719  0.04766767     0.14900
H524        H  0.38332182  0.59673917  0.46788092     0.14700
In525      In  0.08301938  0.91567764  0.12605206     1.36900
C526        C  0.09160470  0.90489255  0.19352860     0.77500
O527        O  0.10998971  0.95858821  0.11640998    -0.60900
O528        O  0.06571445  0.96131090  0.13977420    -0.51800
C529        C  0.11375517  0.88470265  0.07428927     0.70200
O530        O  0.09660159  0.90661566  0.06927248    -0.46700
C531        C  0.02433588  0.90833234  0.11617292     0.74900
O532        O  0.07278800  0.89084519  0.17575338    -0.58500
O533        O  0.03961524  0.92871131  0.10177955    -0.48600
O534        O  0.10863957  0.92206445  0.17592521    -0.55000
C535        C  0.08862609  0.97517990  0.12861247     0.85100
O536        O  0.11574581  0.87849429  0.10623847    -0.56900
O537        O  0.03948547  0.89000850  0.13314397    -0.60200
In538      In  0.07746641  0.91450936  0.30019064     1.36900
C539        C  0.09036214  0.90455128  0.23215884     0.77500
O540        O  0.03394043  0.88964042  0.29261720    -0.60900
O541        O  0.03351228  0.92659619  0.32861213    -0.51800
C542        C  0.10862490  0.88203534  0.34560478     0.70200
O543        O  0.11460340  0.88115555  0.31298159    -0.46700
C544        C  0.08146448  0.97430306  0.30121379     0.74900
O545        O  0.07056970  0.88995446  0.24920703    -0.58500
O546        O  0.06279340  0.95983390  0.28382191    -0.48600
O547        O  0.10607296  0.92170796  0.25066456    -0.55000
C548        C  0.01842539  0.90745909  0.31231650     0.85100
O549        O  0.08690576  0.89918900  0.35464138    -0.56900
O550        O  0.09922936  0.95822275  0.31800605    -0.60200
C551        C  0.13676674  0.85389347  0.43473183     0.86400
C552        C  0.17092387  0.85932919  0.43421919    -0.53800
C553        C  0.18537131  0.84685845  0.46173667     0.09400
C554        C  0.16359627  0.83011875  0.48739984     0.20300
C555        C  0.13326299  0.81978897  0.43649935    -0.54500
C556        C  0.14718431  0.80722399  0.46422071     0.09500
C557        C  0.12516439  0.86548038  0.47081223    -0.54000
C558        C  0.14027384  0.86140564  0.97928850     0.10000
H559        H  0.18250784  0.87143288  0.41330216     0.14600
H560        H  0.17085458  0.82730140  0.00218836     0.00300
H561        H  0.12041386  0.80687132  0.41791974     0.14900
H562        H  0.10657533  0.88142237  0.47419771     0.14700
In563      In  0.07677338  0.57010313  0.15379315     1.36900
C564        C  0.08568711  0.58232424  0.22088488     0.77500
O565        O  0.03048919  0.58808349  0.16773132    -0.60900
O566        O  0.03570719  0.55745305  0.12439566    -0.51800
C567        C  0.10956011  0.60349267  0.10857916     0.70200
O568        O  0.08215284  0.60851319  0.11654517    -0.45900
C569        C  0.07906982  0.51022367  0.15037935     0.74900
O570        O  0.06938790  0.59860061  0.20267605    -0.58500
O571        O  0.08776524  0.52581243  0.12455704    -0.48600
O572        O  0.10155963  0.56315737  0.20352238    -0.55000
C573        C  0.01795890  0.57238713  0.14481639     0.85100
O574        O  0.12090625  0.58237381  0.12525365    -0.56900
O575        O  0.07032826  0.52519525  0.17727595    -0.60200
In576      In  0.06412971  0.57243581  0.32570664     1.36900
C577        C  0.08184111  0.58185979  0.25932392     0.77500
O578        O  0.08550030  0.52966271  0.34535783    -0.60900
O579        O  0.05089254  0.52664029  0.30867299    -0.51800
C580        C  0.09611753  0.60347142  0.37197744     0.70200
O581        O  0.10171724  0.60417256  0.33937760    -0.46700
C582        C  0.00430725  0.58094589  0.33388500     0.74900
O583        O  0.06314542  0.59880876  0.27614614    -0.58500
O584        O  0.01883700  0.56362856  0.35273589    -0.48600
O585        O  0.09348568  0.56169320  0.27730273    -0.55000
C586        C  0.06882754  0.51295759  0.32753637     0.85100
O587        O  0.07347395  0.58809022  0.38071935    -0.56900
O588        O  0.02059435  0.59639759  0.31338198    -0.60200
C589        C  0.12900102  0.63010158  0.45968870     0.86400
C590        C  0.12418261  0.66404868  0.45902186    -0.53800
C591        C  0.13916106  0.67965537  0.48402980     0.09400
C592        C  0.15723556  0.65946599  0.50818329     0.20300
C593        C  0.16339561  0.62561604  0.45708626    -0.54500
C594        C  0.17846496  0.64110779  0.48238562     0.09500
C595        C  0.11955816  0.62136267  0.49718579    -0.54000
C596        C  0.12173536  0.64385322  0.02346657     0.10000
H597        H  0.11119347  0.67484687  0.43921402     0.14600
H598        H  0.15717419  0.67844203  0.02944763     0.00300
H599        H  0.17468164  0.61153736  0.43689085     0.14900
H600        H  0.10198395  0.60518968  0.50325051     0.14700
C601        C  0.11482814  0.61898536  0.39769465    -0.16500
C602        C  0.11166320  0.61341922  0.43221170    -0.31600
H603        H  0.13151785  0.63498645  0.38828797     0.12600
H604        H  0.09519013  0.59698740  0.44107622     0.13100
C605        C  0.12619179  0.61904616  0.07981008    -0.16500
C606        C  0.11272590  0.64006833  0.06092981    -0.31600
H607        H  0.14781919  0.60969217  0.07039170     0.12600
H608        H  0.09037147  0.64821859  0.06936350     0.13100
C609        C  0.11701169  0.76028630  0.46959055    -0.13400
C610        C  0.14469708  0.77495762  0.47248729     0.08800
C611        C  0.16984125  0.75857250  0.48295742    -0.13400
C612        C  0.16770268  0.72774281  0.48870818    -0.13400
C613        C  0.14032597  0.71286246  0.48414584     0.08800
C614        C  0.11482125  0.72959801  0.47547844    -0.13400
H615        H  0.09708292  0.77252806  0.46242696     0.12700
H616        H  0.19143427  0.76922380  0.48516638     0.12700
H617        H  0.18781846  0.71532432  0.49488592     0.12700
H618        H  0.09329724  0.71876816  0.47236547     0.12700
C619        C  0.12575958  0.86484069  0.37126785    -0.16500
C620        C  0.11990531  0.86900347  0.40596919    -0.31600
H621        H  0.14359385  0.84950228  0.36187669     0.12600
H622        H  0.10214741  0.88488757  0.41423868     0.13100
C623        C  0.12744574  0.87686496  0.01168374    -0.16500
C624        C  0.12974308  0.86774162  0.04494270    -0.31600
H625        H  0.11416882  0.89696299  0.00744323     0.12600
H626        H  0.14250779  0.84770527  0.05060340     0.13100
C627        C  0.26156152  0.63975336  0.45280755    -0.13400
C628        C  0.27592117  0.64087932  0.48494092     0.08800
C629        C  0.25795576  0.64294245  0.51634944    -0.13400
C630        C  0.22638567  0.64326111  0.51557430    -0.13400
C631        C  0.21205062  0.64138211  0.48340866     0.08800
C632        C  0.23003842  0.63992006  0.45204189    -0.13400
H633        H  0.27463847  0.63802897  0.42817554     0.12700
H634        H  0.25559538  0.65125916  0.04856456     0.12700
H635        H  0.20088155  0.65229347  0.04465731     0.12700
H636        H  0.21975170  0.63907994  0.42676085     0.12700
C637        C  0.38922953  0.61367013  0.39727523    -0.16500
C638        C  0.36027182  0.61921181  0.40762551    -0.31600
H639        H  0.40664056  0.61834432  0.41584525     0.12600
H640        H  0.34226907  0.61664007  0.38937745     0.13100
C641        C  0.38953807  0.61133135  0.05675723    -0.16500
C642        C  0.35948897  0.61469551  0.05535030    -0.31600
H643        H  0.40390569  0.61748618  0.03424214     0.12600
H644        H  0.34487031  0.60791894  0.07736091     0.13100
C645        C  0.26613869  0.82548186  0.48206520    -0.13400
C646        C  0.28304773  0.84784802  0.46500700     0.08800
C647        C  0.26727550  0.87163542  0.45008921    -0.13400
C648        C  0.23569831  0.87191379  0.45016596    -0.13400
C649        C  0.21885483  0.84853077  0.46534426     0.08800
C650        C  0.23453942  0.82596774  0.48247601    -0.13400
H651        H  0.27710656  0.80671355  0.49388531     0.12700
H652        H  0.27922942  0.88999971  0.43790423     0.12700
H653        H  0.22457370  0.89044966  0.43798751     0.12700
H654        H  0.22269393  0.80784390  0.49501589     0.12700
C655        C  0.32568836  0.75517269  0.46052758    -0.13400
C656        C  0.35250140  0.77108389  0.46456379     0.08800
C657        C  0.37889880  0.75548522  0.47228813    -0.13400
C658        C  0.37837644  0.72440370  0.47665317    -0.13400
C659        C  0.35152482  0.70831263  0.47268652     0.08800
C660        C  0.32527247  0.72399059  0.46419421    -0.13400
H661        H  0.30518831  0.76684954  0.45421482     0.12700
H662        H  0.39982991  0.76745183  0.47531373     0.12700
H663        H  0.39900175  0.71291686  0.48289442     0.12700
H664        H  0.30419590  0.71226537  0.46130913     0.12700
C665        C  0.38040710  0.86173094  0.36935457    -0.16500
C666        C  0.38509349  0.86604295  0.40373551    -0.31600
H667        H  0.36348458  0.84592789  0.36101619     0.12600
H668        H  0.40233650  0.88183323  0.41130736     0.13100
C669        C  0.39609809  0.85641567  0.04742961    -0.16500
C670        C  0.36806784  0.85548313  0.03528086    -0.31600
H671        H  0.41401080  0.84368212  0.03345802     0.12600
H672        H  0.34938870  0.86653985  0.04978602     0.13100
In673      In  0.43246882  0.90613507  0.62537223     1.36900
C674        C  0.41580617  0.89424163  0.69122854     0.77500
O675        O  0.47669858  0.88626638  0.64058676    -0.60900
O676        O  0.47720966  0.91946868  0.60123100    -0.51800
C677        C  0.40916702  0.87281764  0.57378100     0.70200
O678        O  0.39254177  0.88485449  0.59790761    -0.46700
C679        C  0.42618961  0.96576939  0.62395947     0.74900
O680        O  0.43532584  0.87868164  0.67395427    -0.58500
O681        O  0.44019516  0.95221934  0.64689711    -0.48600
O682        O  0.40117698  0.91222839  0.67320617    -0.55000
C683        C  0.49225038  0.90268933  0.62037403     0.85100
O684        O  0.43687493  0.87648642  0.57743961    -0.56900
O685        O  0.41507104  0.94889253  0.60091748    -0.60200
In686      In  0.42272137  0.90860363  0.79715134     1.36900
C687        C  0.41450623  0.89556039  0.72979094     0.77500
O688        O  0.39328253  0.94949426  0.81150649    -0.60900
O689        O  0.43567946  0.95561671  0.78479923    -0.51800
C690        C  0.39430264  0.87438400  0.84491522     0.70200
O691        O  0.38814198  0.87342728  0.81295604    -0.46700
C692        C  0.48125985  0.90433826  0.80874948     0.74900
O693        O  0.43322609  0.88164901  0.74759112    -0.58500
O694        O  0.46369188  0.92207882  0.82588741    -0.48600
O695        O  0.39785847  0.91403236  0.74722358    -0.55000
C696        C  0.41219186  0.96767591  0.79853798     0.85100
O697        O  0.41419941  0.89310477  0.85222773    -0.56900
O698        O  0.46868682  0.88739704  0.78696779    -0.60200
C699        C  0.36918292  0.84354231  0.93538837     0.86400
C700        C  0.36990942  0.80924840  0.93669760    -0.53800
C701        C  0.35325692  0.79802200  0.96443600     0.09400
C702        C  0.33755374  0.82236622  0.98856431     0.20300
C703        C  0.33562818  0.85207657  0.93584572    -0.54500
C704        C  0.31874717  0.84086677  0.96339628     0.09500
C705        C  0.37979290  0.85415550  0.97122579    -0.54000
C706        C  0.36177368  0.84810317  0.49666249     0.10000
H707        H  0.38218607  0.79510653  0.91732386     0.14600
H708        H  0.32453246  0.81627165  0.50769069     0.00300
H709        H  0.32598720  0.86493125  0.91510885     0.14900
H710        H  0.39797291  0.87008459  0.97425647     0.14700
In711      In  0.41302450  0.56777120  0.64588047     1.36900
C712        C  0.39783727  0.57660052  0.71372902     0.77500
O713        O  0.39138057  0.52419174  0.62713917    -0.60900
O714        O  0.42822479  0.52246879  0.66082310    -0.51800
C715        C  0.38476878  0.60055814  0.59850717     0.70200
O716        O  0.37813739  0.60258520  0.63097361    -0.46700
C717        C  0.47205367  0.57645223  0.63462705     0.74900
O718        O  0.38245281  0.56013747  0.69401612    -0.58500
O719        O  0.45761898  0.55679353  0.61839094    -0.48600
O720        O  0.41840815  0.59112283  0.69792440    -0.55000
C721        C  0.40978172  0.50807682  0.64299435     0.85100
O722        O  0.40535172  0.58182721  0.59059377    -0.56900
O723        O  0.45602581  0.59325932  0.65503080    -0.60200
In724      In  0.40619331  0.56056825  0.81817056     1.36900
C725        C  0.39584303  0.57518333  0.75233616     0.77500
O726        O  0.45080059  0.56975347  0.84363220    -0.60900
O727        O  0.45161270  0.55424457  0.79063826    -0.51800
C728        C  0.37471028  0.59464522  0.86762277     0.70200
O729        O  0.37418275  0.56641524  0.86667949    -0.46700
C730        C  0.40235743  0.50130753  0.82325101     0.74900
O731        O  0.37958488  0.55651425  0.76875938    -0.58500
O732        O  0.42026699  0.51680807  0.84075938    -0.48600
O733        O  0.41399458  0.58925790  0.77105206    -0.55000
C734        C  0.46658683  0.56225636  0.81640469     0.85100
O735        O  0.39023639  0.60547170  0.84259968    -0.56900
O736        O  0.38410577  0.51628176  0.80587102    -0.60200
C737        C  0.35881226  0.62848234  0.50855577     0.86400
C738        C  0.36521250  0.66210319  0.50531289    -0.53800
C739        C  0.34334672  0.67008277  0.98505233     0.09400
C740        C  0.32253082  0.64764707  0.96618817     0.20300
C741        C  0.32433163  0.62623712  0.51211026    -0.54500
C742        C  0.29857367  0.63939115  0.99542420     0.09500
C743        C  0.35340115  0.60790673  0.98953258    -0.54000
C744        C  0.34186505  0.61864773  0.95963245     0.10000
H745        H  0.37940345  0.67432027  0.52313104     0.14600
H746        H  0.31300518  0.65655916  0.94199454     0.00300
H747        H  0.31277030  0.61499273  0.53376075     0.14900
H748        H  0.36709284  0.58760678  0.98966061     0.14700
In749      In  0.06776627  0.91925004  0.62867125     1.36900
C750        C  0.08032280  0.90379075  0.69332433     0.77500
O751        O  0.09227617  0.96309478  0.62819614    -0.60900
O752        O  0.04598945  0.96280962  0.64562858    -0.51800
C753        C  0.10220641  0.89886838  0.57430938     0.70200
O754        O  0.09712718  0.88300125  0.60085990    -0.46700
C755        C  0.00995454  0.91028227  0.61492295     0.74900
O756        O  0.06242262  0.88917643  0.67490099    -0.58500
O757        O  0.02546512  0.93069375  0.60101624    -0.48600
O758        O  0.09461888  0.92400411  0.67732929    -0.55000
C759        C  0.06915054  0.97807648  0.63832928     0.85100
O760        O  0.08973329  0.92411553  0.57590268    -0.56900
O761        O  0.02461183  0.89259506  0.63324167    -0.60200
In762      In  0.06394675  0.91228021  0.79819877     1.36900
C763        C  0.07983376  0.90154731  0.73156184     0.77500
O764        O  0.02047789  0.89094150  0.78383614    -0.60900
O765        O  0.01917239  0.92493658  0.82390090    -0.51800
C766        C  0.09282030  0.87924852  0.84431104     0.70200
O767        O  0.06520768  0.87697522  0.83896572    -0.46700
C768        C  0.06465822  0.97190721  0.80387056     0.74900
O769        O  0.06030455  0.88614422  0.74781906    -0.58500
O770        O  0.07024294  0.95546461  0.82944502    -0.48600
O771        O  0.09478075  0.91888693  0.75064617    -0.55000
C772        C  0.00461011  0.90741206  0.80469978     0.85100
O773        O  0.10661287  0.89742571  0.82457902    -0.56900
O774        O  0.05953341  0.95792791  0.77578480    -0.60200
C775        C  0.14623023  0.85387389  0.91573838     0.86400
C776        C  0.18012697  0.85673860  0.92044264    -0.53800
C777        C  0.18950069  0.84695284  0.95210548     0.09400
C778        C  0.16345434  0.83514622  0.97645239     0.20300
C779        C  0.13941925  0.82079989  0.92217145    -0.54500
C780        C  0.14797129  0.81075556  0.95405979     0.09500
C781        C  0.13160584  0.87087922  0.94737009    -0.54000
C782        C  0.13914152  0.85339693  0.49848135     0.10000
H783        H  0.19548718  0.86526745  0.90009877     0.14600
H784        H  0.17428596  0.82016991  0.51031084     0.00300
H785        H  0.12870396  0.80659082  0.90292474     0.14900
H786        H  0.11557742  0.88914856  0.94460887     0.14700
In787      In  0.07636334  0.56913778  0.65304233     1.36900
C788        C  0.08590700  0.57981555  0.72047542     0.77500
O789        O  0.03101863  0.59154901  0.66222197    -0.60900
O790        O  0.03488611  0.55584662  0.62459870    -0.51800
C791        C  0.11353385  0.59713339  0.60711227     0.70200
O792        O  0.08739359  0.60674753  0.61551886    -0.45900
C793        C  0.07740149  0.50970379  0.65063908     0.74900
O794        O  0.10117751  0.56078931  0.70230938    -0.58500
O795        O  0.08655597  0.52492131  0.62474169    -0.48600
O796        O  0.06967334  0.59678355  0.70303030    -0.55000
C797        C  0.01777468  0.57387813  0.64190845     0.85100
O798        O  0.12145085  0.57478063  0.62414068    -0.56900
O799        O  0.06755833  0.52482868  0.67699859    -0.60200
In800      In  0.06594632  0.56625149  0.82476169     1.36900
C801        C  0.08270196  0.57829425  0.75886806     0.77500
O802        O  0.09346777  0.52329714  0.82075850    -0.60900
O803        O  0.05128829  0.52306393  0.84908309    -0.51800
C804        C  0.09410372  0.59921932  0.87279765     0.70200
O805        O  0.07539972  0.57917287  0.88082144    -0.46700
C806        C  0.00614261  0.57104011  0.82038654     0.74900
O807        O  0.09456538  0.55744397  0.77557773    -0.58500
O808        O  0.02238504  0.55322042  0.80171037    -0.48600
O809        O  0.06436004  0.59478961  0.77684317    -0.55000
C810        C  0.07354816  0.50809147  0.83668875     0.85100
O811        O  0.09840783  0.60250928  0.84027211    -0.56900
O812        O  0.02051248  0.58777661  0.84085323    -0.60200
C813        C  0.11942409  0.63363564  0.96085105     0.86400
C814        C  0.11589057  0.66755367  0.95679033    -0.53800
C815        C  0.13015698  0.68446374  0.98151375     0.09400
C816        C  0.14620757  0.66518788  0.00868023     0.20300
C817        C  0.15361919  0.62816626  0.96104687    -0.54500
C818        C  0.16797280  0.64492858  0.98576700     0.09500
C819        C  0.10778107  0.62765970  0.99834552    -0.54000
C820        C  0.13407681  0.63667042  0.52265955     0.10000
H821        H  0.10452894  0.67706740  0.93486267     0.14600
H822        H  0.16884372  0.67215038  0.52897091     0.00300
H823        H  0.16536304  0.61259027  0.94283505     0.14900
H824        H  0.09001801  0.61175772  0.00467498     0.14700
C825        C  0.10981631  0.61743497  0.89901099    -0.16500
C826        C  0.10359555  0.61501766  0.93367509    -0.31600
H827        H  0.12664207  0.63331441  0.88973095     0.12600
H828        H  0.08649728  0.59927916  0.94267169     0.13100
C829        C  0.13226397  0.60874491  0.57740437    -0.16500
C830        C  0.12452150  0.63335339  0.56007596    -0.31600
H831        H  0.15039707  0.59440313  0.56648340     0.12600
H832        H  0.10610647  0.64758219  0.57041489     0.13100
C833        C  0.11566631  0.76481014  0.95496998    -0.13400
C834        C  0.14198412  0.77938888  0.96518687     0.08800
C835        C  0.16286829  0.76324265  0.98426828    -0.13400
C836        C  0.15859180  0.73268119  0.99073211    -0.13400
C837        C  0.13296248  0.71774015  0.97890402     0.08800
C838        C  0.11111508  0.73452970  0.96191867    -0.13400
H839        H  0.09857154  0.77677993  0.94121579     0.12700
H840        H  0.18311318  0.77373612  0.99290755     0.12700
H841        H  0.17610734  0.72060267  0.00360473     0.12700
H842        H  0.09060688  0.72421477  0.95337211     0.12700
C843        C  0.10645091  0.86317278  0.87320021    -0.16500
C844        C  0.13560210  0.86539955  0.88111346    -0.31600
H845        H  0.09113960  0.85096614  0.89066584     0.12600
H846        H  0.15128065  0.87725105  0.86374179     0.13100
C847        C  0.12974806  0.86156911  0.53529423    -0.16500
C848        C  0.12000952  0.88961241  0.54269238    -0.31600
H849        H  0.12863072  0.84438280  0.55508326     0.12600
H850        H  0.12275019  0.90663861  0.52281862     0.13100
C851        C  0.25183149  0.63981805  0.96007360    -0.13400
C852        C  0.26517071  0.64285694  0.99271807     0.08800
C853        C  0.24620073  0.64805396  0.02299065    -0.13400
C854        C  0.21474914  0.64904136  0.02076642    -0.13400
C855        C  0.20145064  0.64491639  0.98824149     0.08800
C856        C  0.22040149  0.64082686  0.95786114    -0.13400
H857        H  0.26555944  0.63573663  0.93625479     0.12700
H858        H  0.26827574  0.64444010  0.54159138     0.12700
H859        H  0.21323624  0.64436934  0.54019821     0.12700
H860        H  0.21095550  0.63836045  0.93221497     0.12700
C861        C  0.36005097  0.61364216  0.89647421    -0.16500
C862        C  0.34762662  0.60155560  0.92577262    -0.31600
H863        H  0.36274314  0.63778896  0.89544780     0.12600
H864        H  0.34704433  0.57726037  0.92725456     0.13100
C865        C  0.36956867  0.61830324  0.57185166    -0.16500
C866        C  0.37525854  0.61292292  0.53725762    -0.31600
H867        H  0.35283526  0.63506036  0.58052454     0.12600
H868        H  0.39167258  0.59561640  0.52925925     0.13100
C869        C  0.26686580  0.82153829  0.97953862    -0.13400
C870        C  0.28530598  0.84449487  0.96619184     0.08800
C871        C  0.27147316  0.86990841  0.95243182    -0.13400
C872        C  0.24023548  0.87126489  0.94952475    -0.13400
C873        C  0.22194173  0.84741155  0.96064506     0.08800
C874        C  0.23545025  0.82305624  0.97688365    -0.13400
H875        H  0.27669146  0.80164639  0.99032121     0.12700
H876        H  0.28484374  0.88850035  0.94296636     0.12700
H877        H  0.23042543  0.89073216  0.93771076     0.12700
H878        H  0.22206931  0.80444352  0.98573934     0.12700
C879        C  0.32379626  0.75034219  0.96194863    -0.13400
C880        C  0.35048372  0.76536812  0.96970097     0.08800
C881        C  0.37532357  0.74881178  0.98033758    -0.13400
C882        C  0.37334694  0.71774747  0.98397470    -0.13400
C883        C  0.34650161  0.70250561  0.97681563     0.08800
C884        C  0.32184427  0.71912846  0.96532492    -0.13400
H885        H  0.30458294  0.76273368  0.95303112     0.12700
H886        H  0.39621911  0.75999751  0.98599355     0.12700
H887        H  0.39286060  0.70564435  0.99259293     0.12700
H888        H  0.30075068  0.70819174  0.96005203     0.12700
C889        C  0.37920159  0.85565974  0.87178202    -0.16500
C890        C  0.38732959  0.85725115  0.90540935    -0.31600
H891        H  0.36019350  0.84198240  0.86450535     0.12600
H892        H  0.40635172  0.87121748  0.91200197     0.13100
C893        C  0.39841350  0.85763967  0.54191071    -0.16500
C894        C  0.36929965  0.85498486  0.53372677    -0.31600
H895        H  0.41585907  0.85106254  0.52226416     0.12600
H896        H  0.35123904  0.85996325  0.55315789     0.13100
In897      In  0.92728057  0.40773257  0.14642531     1.36900
C898        C  0.91038982  0.39835868  0.21286600     0.77500
O899        O  0.97153050  0.38731443  0.16062586    -0.60900
O900        O  0.97190625  0.42100620  0.12173749    -0.51800
C901        C  0.90211406  0.37471276  0.09522475     0.70200
O902        O  0.88628069  0.38796861  0.11914727    -0.46700
C903        C  0.92412305  0.46755783  0.14477215     0.74900
O904        O  0.92925684  0.38151839  0.19628102    -0.58500
O905        O  0.90930026  0.45128377  0.12425588    -0.48600
O906        O  0.89647492  0.41623030  0.19404286    -0.55000
C907        C  0.98701235  0.40445834  0.14107869     0.85100
O908        O  0.93002298  0.37698810  0.09887789    -0.56900
O909        O  0.93993828  0.45329377  0.16540873    -0.60200
In910      In  0.91718496  0.41624324  0.31808742     1.36900
C911        C  0.90906089  0.40115962  0.25133353     0.77500
O912        O  0.89043485  0.45979407  0.32754084    -0.60900
O913        O  0.93476690  0.46164702  0.30467015    -0.51800
C914        C  0.88453174  0.38552638  0.36597291     0.70200
O915        O  0.88183887  0.38169194  0.33347045    -0.46700
C916        C  0.97537403  0.40902085  0.33114809     0.74900
O917        O  0.92733217  0.38745945  0.26992128    -0.58500
O918        O  0.95834690  0.42726514  0.34828126    -0.48600
O919        O  0.89288989  0.42071401  0.26770844    -0.55000
C920        C  0.91177409  0.47600238  0.31610336     0.85100
O921        O  0.90317874  0.40539446  0.37378891    -0.56900
O922        O  0.96216171  0.39253136  0.30945535    -0.60200
C923        C  0.85747547  0.35400295  0.45583941     0.86400
C924        C  0.85951644  0.31964930  0.45349396    -0.53800
C925        C  0.84476859  0.30552941  0.48087979     0.09400
C926        C  0.82958895  0.32763585  0.50833295     0.20300
C927        C  0.82370253  0.36118653  0.45922565    -0.54500
C928        C  0.80874565  0.34715223  0.48634231     0.09500
C929        C  0.86943783  0.36233589  0.49165255    -0.54000
C930        C  0.85253675  0.35074845  0.01896350     0.10000
H931        H  0.87166672  0.30771655  0.43208465     0.14600
H932        H  0.81474147  0.31877874  0.02936536     0.00300
H933        H  0.81237722  0.37484737  0.44042894     0.14900
H934        H  0.88729005  0.37859007  0.49484793     0.14700
In935      In  0.93162529  0.06838411  0.14340000     1.36900
C936        C  0.91633486  0.08044556  0.21110828     0.77500
O937        O  0.94844348  0.02230969  0.15350101    -0.60900
O938        O  0.90983867  0.02582973  0.12270367    -0.51800
C939        C  0.90362672  0.10154079  0.09653239     0.70200
O940        O  0.88921797  0.08570843  0.11838901    -0.46700
C941        C  0.99074682  0.07469135  0.13106521     0.74900
O942        O  0.90499183  0.05929702  0.19395745    -0.58500
O943        O  0.97492727  0.05762992  0.11256862    -0.48600
O944        O  0.93308689  0.09729422  0.19292003    -0.55000
C945        C  0.92865135  0.00888035  0.13663568     0.85100
O946        O  0.93166098  0.10089399  0.09938756    -0.56900
O947        O  0.97617841  0.08938389  0.15499833    -0.60200
In948      In  0.92584287  0.07100616  0.31604838     1.36900
C949        C  0.91443197  0.08200118  0.24971154     0.77500
O950        O  0.96897526  0.09647001  0.30529801    -0.60900
O951        O  0.97033018  0.05642733  0.33477493    -0.51800
C952        C  0.90044575  0.10197258  0.37106385     0.70200
O953        O  0.92636580  0.09056051  0.37005862    -0.46700
C954        C  0.92237593  0.01119200  0.31455123     0.74900
O955        O  0.89903024  0.06377773  0.26771255    -0.58500
O956        O  0.90359529  0.02692865  0.33301704    -0.48600
O957        O  0.93180398  0.09821296  0.26713715    -0.55000
C958        C  0.98490253  0.07712107  0.31993669     0.85100
O959        O  0.88627498  0.09776206  0.34332402    -0.56900
O960        O  0.94188675  0.02600556  0.29775275    -0.60200
C961        C  0.84992221  0.13035216  0.02733514     0.86400
C962        C  0.85350972  0.16436585  0.02569928    -0.53800
C963        C  0.84154715  0.17537343  0.48910423     0.09400
C964        C  0.82607779  0.15402820  0.46286444     0.20300
C965        C  0.81661397  0.12492000  0.02049360    -0.54500
C966        C  0.80435302  0.13534340  0.48640763     0.09500
C967        C  0.86445523  0.11737246  0.47619963    -0.54000
C968        C  0.85111626  0.13181213  0.44958739     0.10000
H969        H  0.86246281  0.17741450  0.04720718     0.14600
H970        H  0.81479931  0.16544977  0.44131734     0.00300
H971        H  0.80175318  0.11306019  0.03874539     0.14900
H972        H  0.88184706  0.10030319  0.47156810     0.14700
In973      In  0.58236717  0.41565673  0.13787462     1.36900
C974        C  0.59288433  0.40243912  0.20375298     0.77500
O975        O  0.57539516  0.46184076  0.16004763    -0.60900
O976        O  0.59615176  0.45775858  0.10881958    -0.51800
C977        C  0.61536181  0.38228983  0.09183224     0.70200
O978        O  0.58716038  0.38042074  0.09574755    -0.46700
C979        C  0.52328523  0.41107153  0.12963944     0.74900
O980        O  0.57474035  0.38785391  0.18568471    -0.58500
O981        O  0.53943473  0.42915144  0.11229839    -0.48600
O982        O  0.60859003  0.42116738  0.18691041    -0.55000
C983        C  0.58642537  0.47497217  0.13356235     0.85100
O984        O  0.62722081  0.40052732  0.11264231    -0.56900
O985        O  0.53752019  0.39437107  0.14951982    -0.60200
In986      In  0.57666426  0.41405322  0.30875145     1.36900
C987        C  0.59143179  0.40185374  0.24211507     0.77500
O988        O  0.53346497  0.38736557  0.30299914    -0.60900
O989        O  0.53145884  0.42777078  0.33316920    -0.51800
C990        C  0.60818740  0.38442003  0.35587930     0.70200
O991        O  0.61423821  0.38224398  0.32333874    -0.46700
C992        C  0.58195357  0.47361302  0.30615084     0.74900
O993        O  0.57110769  0.38771250  0.25884970    -0.58500
O994        O  0.56469973  0.45855434  0.28743480    -0.48600
O995        O  0.60689459  0.41923854  0.26054381    -0.55000
C996        C  0.51706999  0.40658261  0.31958886     0.85100
O997        O  0.58608939  0.40138411  0.36404735    -0.56900
O998        O  0.59749065  0.45824455  0.32634292    -0.60200
C999        C  0.63304702  0.35467543  0.44524162     0.86400
C1000       C  0.66696079  0.35990902  0.44871673    -0.53800
C1001       C  0.67929702  0.34446401  0.47551739     0.09400
C1002       C  0.65615272  0.32532182  0.49640923     0.20300
C1003       C  0.62982910  0.32059821  0.44165344    -0.54500
C1004       C  0.64163116  0.30492981  0.46860726     0.09500
C1005       C  0.61884380  0.36263220  0.48158190    -0.54000
C1006       C  0.62981335  0.34544656  0.00387910     0.10000
H1007       H  0.68002298  0.37423132  0.43120077     0.14600
H1008       H  0.66477323  0.31151231  0.01365251     0.00300
H1009       H  0.61908349  0.31008181  0.41953468     0.14900
H1010       H  0.60058041  0.37883046  0.48604454     0.14700
In1011     In  0.57071802  0.07758047  0.13277298     1.36900
C1012       C  0.58303535  0.08778228  0.19967927     0.77500
O1013       O  0.52611450  0.06031715  0.15129975    -0.60900
O1014       O  0.52562831  0.09586265  0.11521741    -0.51800
C1015       C  0.59907727  0.10879718  0.08159776     0.70200
O1016       O  0.58863783  0.12127347  0.10960565    -0.45900
C1017       C  0.58065426  0.01942024  0.12181243     0.74900
O1018       O  0.56209083  0.10141474  0.18516328    -0.58500
O1019       O  0.55922817  0.03332631  0.10849950    -0.48600
O1020       O  0.60048731  0.07293416  0.17885049    -0.55000
C1021       C  0.51055077  0.07744967  0.13342193     0.85100
O1022       O  0.59562075  0.08086997  0.08058368    -0.56900
O1023       O  0.59852480  0.03561599  0.13865941    -0.60200
In1024     In  0.57427621  0.06765853  0.30407722     1.36900
C1025       C  0.58356997  0.08469813  0.23795635     0.77500
O1026       O  0.60224105  0.02571608  0.29127261    -0.60900
O1027       O  0.56463415  0.02271629  0.32716998    -0.51800
C1028       C  0.60414916  0.09674622  0.35394556     0.70200
O1029       O  0.60987343  0.10036839  0.32168275    -0.46700
C1030       C  0.51403951  0.07011759  0.30616670     0.74900
O1031       O  0.56474403  0.09779809  0.25890184    -0.58500
O1032       O  0.52949222  0.05003371  0.28999172    -0.48600
O1033       O  0.59980128  0.06525971  0.25180331    -0.55000
C1034       C  0.58524238  0.00905980  0.30952200     0.85100
O1035       O  0.58316573  0.07867284  0.36050433    -0.56900
O1036       O  0.52936051  0.09006430  0.32114454    -0.60200
C1037       C  0.62814686  0.12514253  0.44515777     0.86400
C1038       C  0.62511751  0.15925469  0.44276343    -0.53800
C1039       C  0.63761645  0.17496344  0.46978412     0.09400
C1040       C  0.65231121  0.15451884  0.49666800     0.20300
C1041       C  0.66207032  0.11912487  0.44763067    -0.54500
C1042       C  0.67483840  0.13475715  0.47434499     0.09500
C1043       C  0.61431872  0.11796186  0.48148092    -0.54000
C1044       C  0.63115070  0.12466144  0.98828868     0.10000
H1045       H  0.61443671  0.16975499  0.42099196     0.14600
H1046       H  0.66071531  0.16070313  0.00886896     0.00300
H1047       H  0.67504023  0.10476479  0.42910549     0.14900
H1048       H  0.59562657  0.10263540  0.48560671     0.14700
C1049       C  0.62051877  0.11243737  0.38170688    -0.16500
C1050       C  0.61333319  0.10820172  0.41588853    -0.31600
H1051       H  0.63819591  0.12806006  0.37413983     0.12600
H1052       H  0.59546484  0.09262251  0.42299751     0.13100
C1053       C  0.61342215  0.12523595  0.05180333    -0.16500
C1054       C  0.62123058  0.11039103  0.02162604    -0.31600
H1055       H  0.61566575  0.14942469  0.05371679     0.12600
H1056       H  0.61705364  0.08643654  0.01987341     0.13100
C1057       C  0.61641018  0.25610046  0.45453205    -0.13400
C1058       C  0.63943048  0.27172155  0.47117267     0.08800
C1059       C  0.66025621  0.25527341  0.49004117    -0.13400
C1060       C  0.65927793  0.22398909  0.49040239    -0.13400
C1061       C  0.63724167  0.20833942  0.47212752     0.08800
C1062       C  0.61527497  0.22491303  0.45510513    -0.13400
H1063       H  0.59899825  0.26784916  0.44112989     0.12700
H1064       H  0.67804786  0.26624598  0.50372236     0.12700
H1065       H  0.67654556  0.21227137  0.50400356     0.12700
H1066       H  0.59702834  0.21393098  0.44209770     0.12700
C1067       C  0.62532122  0.36828370  0.38224244    -0.16500
C1068       C  0.61832077  0.37203200  0.41674792    -0.31600
H1069       H  0.64322171  0.35279928  0.37340080     0.12600
H1070       H  0.60033762  0.38771927  0.42482364     0.13100
C1071       C  0.61792141  0.34943649  0.04015416    -0.16500
C1072       C  0.63255152  0.36633795  0.06323952    -0.31600
H1073       H  0.59400936  0.34507891  0.04474214     0.12600
H1074       H  0.65596924  0.37233521  0.05779044     0.13100
C1075       C  0.75459758  0.10855956  0.48901044    -0.13400
C1076       C  0.77111745  0.13489040  0.48294062     0.08800
C1077       C  0.75558082  0.16118283  0.47461634    -0.13400
C1078       C  0.72413915  0.16124318  0.47273432    -0.13400
C1079       C  0.70778304  0.13491477  0.47857200     0.08800
C1080       C  0.72319595  0.10851245  0.48644979    -0.13400
H1081       H  0.76601211  0.08792878  0.49525818     0.12700
H1082       H  0.75784757  0.14168212  0.03579954     0.12700
H1083       H  0.70488734  0.14122808  0.02290641     0.12700
H1084       H  0.71088692  0.08793600  0.49072881     0.12700
C1085       C  0.88904008  0.11777454  0.40341415    -0.16500
C1086       C  0.86006590  0.12499836  0.41196239    -0.31600
H1087       H  0.90575197  0.12088428  0.42321622     0.12600
H1088       H  0.84287396  0.12348840  0.39255220     0.13100
C1089       C  0.88990500  0.11878809  0.06870514    -0.16500
C1090       C  0.86074926  0.11671782  0.06073583    -0.31600
H1091       H  0.90509698  0.13181045  0.05197231     0.12600
H1092       H  0.84533011  0.10348553  0.07691285     0.13100
C1093       C  0.75923571  0.32097954  0.49600265    -0.13400
C1094       C  0.77521019  0.34754727  0.48982476     0.08800
C1095       C  0.75900364  0.37368150  0.48236725    -0.13400
C1096       C  0.72775794  0.37288676  0.47901058    -0.13400
C1097       C  0.71194029  0.34594817  0.48309844     0.08800
C1098       C  0.72787867  0.32022073  0.49267214    -0.13400
H1099       H  0.77115186  0.30040234  0.50131047     0.12700
H1100       H  0.77067471  0.39459281  0.47799785     0.12700
H1101       H  0.71604312  0.39327407  0.47247732     0.12700
H1102       H  0.71645213  0.29909547  0.49574525     0.12700
C1103       C  0.84203926  0.25409068  0.45240222    -0.13400
C1104       C  0.84297600  0.27220018  0.48308095     0.08800
C1105       C  0.84233848  0.25821268  0.51581090    -0.13400
C1106       C  0.84150332  0.22690887  0.51777920    -0.13400
C1107       C  0.84121466  0.20876599  0.48704931     0.08800
C1108       C  0.84111547  0.22278892  0.45437453    -0.13400
H1109       H  0.84191345  0.26410542  0.42675045     0.12700
H1110       H  0.84315792  0.27139152  0.53993756     0.12700
H1111       H  0.84100263  0.21694825  0.54348864     0.12700
H1112       H  0.84106731  0.20960990  0.43018745     0.12700
C1113       C  0.86759988  0.36802177  0.39266675    -0.16500
C1114       C  0.87419231  0.37038066  0.42670447    -0.31600
H1115       H  0.84992634  0.35301260  0.38447278     0.12600
H1116       H  0.89226259  0.38531464  0.43401722     0.13100
C1117       C  0.89034713  0.35986904  0.06344728    -0.16500
C1118       C  0.86094675  0.35713207  0.05603196    -0.31600
H1119       H  0.90732601  0.35342568  0.04320734     0.12600
H1120       H  0.84330001  0.36181879  0.07606022     0.13100
In1121     In  0.92646428  0.41260766  0.64446337     1.36900
C1122       C  0.90948221  0.39996648  0.71011740     0.77500
O1123       O  0.97039892  0.39262641  0.65943192    -0.60900
O1124       O  0.97151286  0.42683026  0.62126093    -0.51800
C1125       C  0.90348721  0.37828917  0.59356216     0.70200
O1126       O  0.93110776  0.38322421  0.59636143    -0.46700
C1127       C  0.92168711  0.47231164  0.64274339     0.74900
O1128       O  0.92874156  0.38427373  0.69260514    -0.58500
O1129       O  0.90943389  0.45583007  0.62010454    -0.48600
O1130       O  0.89556878  0.41881403  0.69247779    -0.55000
C1131       C  0.98622393  0.40960503  0.64018647     0.85100
O1132       O  0.88679333  0.39031190  0.61763640    -0.56900
O1133       O  0.93497463  0.45826837  0.66586728    -0.60200
In1134     In  0.91595155  0.41367458  0.81603107     1.36900
C1135       C  0.90771291  0.40054648  0.74869456     0.77500
O1136       O  0.88875822  0.45646262  0.80882264    -0.60900
O1137       O  0.92778765  0.45839420  0.83898068    -0.51800
C1138       C  0.88392249  0.38342313  0.86437138     0.70200
O1139       O  0.88491100  0.37573032  0.83234805    -0.46700
C1140       C  0.97583179  0.40883431  0.81988160     0.74900
O1141       O  0.92557293  0.38567990  0.76669556    -0.58500
O1142       O  0.96276895  0.42670538  0.80029830    -0.48600
O1143       O  0.89166886  0.41954230  0.76602995    -0.55000
C1144       C  0.90691255  0.47264088  0.82523067     0.85100
O1145       O  0.89835044  0.40681176  0.87117885    -0.56900
O1146       O  0.95832093  0.39162917  0.83681094    -0.60200
C1147       C  0.85651585  0.35511052  0.95529356     0.86400
C1148       C  0.85919221  0.32078238  0.95383389    -0.53800
C1149       C  0.84375756  0.30681306  0.98080476     0.09400
C1150       C  0.82739362  0.32923770  0.00713188     0.20300
C1151       C  0.82266445  0.36179456  0.95699282    -0.54500
C1152       C  0.80700248  0.34806449  0.98372668     0.09500
C1153       C  0.86732622  0.36426627  0.99149451    -0.54000
C1154       C  0.85525680  0.34870918  0.51941369     0.10000
H1155       H  0.87242390  0.30883063  0.93332063     0.14600
H1156       H  0.81755992  0.31677782  0.53077749     0.00300
H1157       H  0.81185595  0.37482721  0.93721168     0.14900
H1158       H  0.88525042  0.38036811  0.99513635     0.14700
In1159     In  0.91498549  0.06876793  0.64604783     1.36900
C1160       C  0.90336015  0.07757900  0.71483546     0.77500
O1161       O  0.88991793  0.02576563  0.63376060    -0.60900
O1162       O  0.93382797  0.02296570  0.65372484    -0.51800
C1163       C  0.88169533  0.09869085  0.60108330     0.70200
O1164       O  0.88023995  0.10435751  0.63361346    -0.46700
C1165       C  0.97316964  0.07913535  0.62980654     0.74900
O1166       O  0.88854461  0.05947482  0.69659853    -0.58500
O1167       O  0.95841433  0.05854594  0.61567511    -0.48600
O1168       O  0.92232548  0.09286204  0.69751577    -0.55000
C1169       C  0.91162917  0.00916004  0.64190005     0.85100
O1170       O  0.89997099  0.07806522  0.59195063    -0.56900
O1171       O  0.95761959  0.09648574  0.65003082    -0.60200
In1172     In  0.91161993  0.06615038  0.82000439     1.36900
C1173       C  0.90192426  0.07769352  0.75341965     0.77500
O1174       O  0.95511403  0.09025335  0.80856590    -0.60900
O1175       O  0.95554732  0.05410223  0.84408170    -0.51800
C1176       C  0.88055200  0.09886174  0.87034196     0.70200
O1177       O  0.87212771  0.09657552  0.83922450    -0.46700
C1178       C  0.90731665  0.00628204  0.81481149     0.74900
O1179       O  0.88593470  0.05946542  0.77076283    -0.58500
O1180       O  0.92778105  0.02151011  0.80033462    -0.48600
O1181       O  0.91964949  0.09309152  0.77138235    -0.55000
C1182       C  0.97063118  0.07287413  0.82646907     0.85100
O1183       O  0.90435403  0.08432998  0.87548646    -0.56900
O1184       O  0.88832812  0.02150483  0.83357498    -0.60200
C1185       C  0.85236579  0.12634792  0.51307942     0.86400
C1186       C  0.85552801  0.16053060  0.51514511    -0.53800
C1187       C  0.84415970  0.17673344  0.99527573     0.09400
C1188       C  0.83264131  0.15297794  0.96858483     0.20300
C1189       C  0.81836457  0.12070775  0.51254299    -0.54500
C1190       C  0.80706419  0.13709000  0.99003177     0.09500
C1191       C  0.86711164  0.11790534  0.99470241    -0.54000
C1192       C  0.85856400  0.12933683  0.96380257     0.10000
H1193       H  0.86797741  0.17183573  0.53541211     0.14600
H1194       H  0.82532640  0.16259756  0.94367642     0.00300
H1195       H  0.80638098  0.10708109  0.53179819     0.14900
H1196       H  0.88488993  0.10109717  0.99603311     0.14700
In1197     In  0.57129063  0.41930586  0.63652127     1.36900
C1198       C  0.58410882  0.40614966  0.70174274     0.77500
O1199       O  0.56430857  0.46446715  0.66201320    -0.60900
O1200       O  0.57595724  0.46301403  0.60731320    -0.51800
C1201       C  0.60877851  0.38974457  0.59123929     0.70200
O1202       O  0.58226783  0.38127178  0.59837426    -0.46700
C1203       C  0.51254814  0.41212953  0.62890260     0.74900
O1204       O  0.56747542  0.38981152  0.68354832    -0.58500
O1205       O  0.52847282  0.42768231  0.60816407    -0.48600
O1206       O  0.59722460  0.42687564  0.68522532    -0.55000
C1207       C  0.56942084  0.47896438  0.63438789     0.85100
O1208       O  0.61659418  0.41258342  0.60831948    -0.56900
O1209       O  0.52696367  0.39849988  0.65149052    -0.60200
In1210     In  0.56975569  0.41433566  0.80751513     1.36900
C1211       C  0.58367110  0.40483419  0.74009941     0.77500
O1212       O  0.52460657  0.42657602  0.78851192    -0.60900
O1213       O  0.52595650  0.39072392  0.82405760    -0.51800
C1214       C  0.60193257  0.38296757  0.85291051     0.70200
O1215       O  0.60320325  0.37757411  0.82030290    -0.46700
C1216       C  0.57325362  0.47312575  0.81901692     0.74900
O1217       O  0.56604962  0.38780724  0.75714556    -0.58500
O1218       O  0.55372313  0.45715284  0.83439721    -0.48600
O1219       O  0.59715955  0.42394086  0.75843613    -0.55000
C1220       C  0.50998265  0.40754614  0.80589918     0.85100
O1221       O  0.58439392  0.40428500  0.86214529    -0.56900
O1222       O  0.59322654  0.45869243  0.80101511    -0.60200
C1223       C  0.63016863  0.35220523  0.94083238     0.86400
C1224       C  0.66427629  0.35741717  0.94295354    -0.53800
C1225       C  0.67744213  0.34237084  0.96957189     0.09400
C1226       C  0.65486748  0.32337274  0.99148963     0.20300
C1227       C  0.62672401  0.31804429  0.93798825    -0.54500
C1228       C  0.63945046  0.30276506  0.96467959     0.09500
C1229       C  0.61700565  0.36041449  0.97757814    -0.54000
C1230       C  0.63088468  0.34739336  0.50820932     0.10000
H1231       H  0.67677152  0.37172152  0.92486927     0.14600
H1232       H  0.66557692  0.31353681  0.51888592     0.00300
H1233       H  0.61489301  0.30708644  0.91693737     0.14900
H1234       H  0.59859350  0.37637226  0.98253355     0.14700
In1235     In  0.56967972  0.06415875  0.63485984     1.36900
C1236       C  0.56717087  0.06629712  0.70476489     0.77500
O1237       O  0.52434249  0.08596643  0.64667279    -0.60900
O1238       O  0.52824815  0.05407449  0.60445953    -0.51800
C1239       C  0.60676569  0.09715182  0.59421512     0.70200
O1240       O  0.57950773  0.10411978  0.60084815    -0.45900
C1241       C  0.58402907  0.00736780  0.62265064     0.74900
O1242       O  0.57919280  0.08726722  0.68738119    -0.58500
O1243       O  0.56479871  0.02090725  0.60515620    -0.48600
O1244       O  0.55750114  0.04502626  0.68649127    -0.55000
C1245       C  0.51105524  0.07046927  0.62403600     0.85100
O1246       O  0.61564016  0.07477497  0.61049436    -0.56900
O1247       O  0.59806223  0.02356851  0.64390439    -0.60200
In1248     In  0.55494786  0.06108251  0.81215852     1.36900
C1249       C  0.56356949  0.06564912  0.74310293     0.77500
O1250       O  0.58781071  0.02232393  0.80402041    -0.60900
O1251       O  0.55153443  0.01804967  0.84158423    -0.51800
C1252       C  0.58024232  0.09784491  0.85780139     0.70200
O1253       O  0.59557042  0.08284085  0.83499472    -0.46700
C1254       C  0.49508005  0.06707167  0.81580637     0.74900
O1255       O  0.57221223  0.08600701  0.76384755    -0.58500
O1256       O  0.50882948  0.04745090  0.83253760    -0.48600
O1257       O  0.55074829  0.04385870  0.75775692    -0.55000
C1258       C  0.57342127  0.00554061  0.82480817     0.85100
O1259       O  0.55221517  0.09502583  0.85620352    -0.56900
O1260       O  0.51195650  0.08450506  0.79838042    -0.60200
C1261       C  0.63465995  0.12865132  0.92472952     0.86400
C1262       C  0.62694505  0.16182952  0.93043915    -0.53800
C1263       C  0.63666081  0.17382094  0.96120551     0.09400
C1264       C  0.65337597  0.15100783  0.98363163     0.20300
C1265       C  0.66894094  0.12662228  0.92764488    -0.54500
C1266       C  0.67929113  0.13843325  0.95841486     0.09500
C1267       C  0.62179209  0.11305815  0.95732685    -0.54000
C1268       C  0.62686653  0.13321827  0.50843056     0.10000
H1269       H  0.61598901  0.17495232  0.91084261     0.14600
H1270       H  0.66249745  0.16638250  0.51907257     0.00300
H1271       H  0.68346570  0.11621070  0.90716503     0.14900
H1272       H  0.60649868  0.09417803  0.95597553     0.14700
C1273       C  0.59344405  0.11589548  0.88566531    -0.16500
C1274       C  0.62311243  0.11546851  0.89120290    -0.31600
H1275       H  0.57802147  0.12742818  0.90446049     0.12600
H1276       H  0.63871438  0.10388514  0.87267224     0.13100
C1277       C  0.62597616  0.11171143  0.56700473    -0.16500
C1278       C  0.61397998  0.13074523  0.54457573    -0.31600
H1279       H  0.64846569  0.10252207  0.56120509     0.12600
H1280       H  0.59071901  0.13818893  0.54906443     0.13100
C1281       C  0.61126589  0.25459971  0.95714284    -0.13400
C1282       C  0.63693381  0.26974320  0.96842281     0.08800
C1283       C  0.66026609  0.25295337  0.98247772    -0.13400
C1284       C  0.65933123  0.22167125  0.98252117    -0.13400
C1285       C  0.63474567  0.20655183  0.96863915     0.08800
C1286       C  0.61016707  0.22335649  0.95735762    -0.13400
H1287       H  0.59225737  0.26684729  0.94750427     0.12700
H1288       H  0.68032406  0.26390279  0.99195867     0.12700
H1289       H  0.67860976  0.20932599  0.99124650     0.12700
H1290       H  0.59049537  0.21225920  0.94739150     0.12700
C1291       C  0.61931473  0.36558844  0.87816251    -0.16500
C1292       C  0.61456272  0.36985758  0.91303406    -0.31600
H1293       H  0.63537218  0.34865168  0.86820183     0.12600
H1294       H  0.59785320  0.38654495  0.92210190     0.13100
C1295       C  0.61916717  0.35205242  0.54455862    -0.16500
C1296       C  0.62825726  0.37586505  0.56314154    -0.31600
H1297       H  0.59863658  0.34042060  0.55248556     0.12600
H1298       H  0.64824110  0.38797166  0.55422268     0.13100
C1299       C  0.76559078  0.13678087  0.94649485    -0.13400
C1300       C  0.77448438  0.13784026  0.98142714     0.08800
C1301       C  0.75190941  0.14002316  0.00854876    -0.13400
C1302       C  0.72129425  0.14035816  0.00107442    -0.13400
C1303       C  0.71219462  0.13883210  0.96620466     0.08800
C1304       C  0.73487794  0.13731681  0.93895598    -0.13400
H1305       H  0.78232845  0.13513550  0.92497297     0.12700
H1306       H  0.76766896  0.18186263  0.47020858     0.12700
H1307       H  0.71262612  0.18168519  0.46601848     0.12700
H1308       H  0.72910419  0.13678501  0.91163653     0.12700
C1309       C  0.86368929  0.11630590  0.89880072    -0.16500
C1310       C  0.87499812  0.11850099  0.93094855    -0.31600
H1311       H  0.84151661  0.12544129  0.89403886     0.12600
H1312       H  0.89706276  0.10846678  0.93454372     0.13100
C1313       C  0.86379393  0.11490395  0.57562058    -0.16500
C1314       C  0.86858304  0.10973567  0.54094160    -0.31600
H1315       H  0.84731373  0.13160968  0.58512271     0.12600
H1316       H  0.88560417  0.09324617  0.53218159     0.13100
C1317       C  0.75758247  0.32149034  0.99314798    -0.13400
C1318       C  0.77334908  0.34789327  0.98536600     0.08800
C1319       C  0.75694607  0.37308539  0.97501589    -0.13400
C1320       C  0.72582680  0.37150007  0.97072925    -0.13400
C1321       C  0.71021150  0.34465881  0.97681742     0.08800
C1322       C  0.72638705  0.32004442  0.98902246    -0.13400
H1323       H  0.76958452  0.30160510  0.00066017     0.12700
H1324       H  0.76835637  0.39397828  0.96939207     0.12700
H1325       H  0.71404369  0.39124337  0.96231885     0.12700
H1326       H  0.71512093  0.29884511  0.99408995     0.12700
C1327       C  0.84635368  0.25415339  0.95413066    -0.13400
C1328       C  0.84285628  0.27341129  0.98396493     0.08800
C1329       C  0.83866376  0.26045413  0.01706106    -0.13400
C1330       C  0.83847897  0.22931689  0.02040682    -0.13400
C1331       C  0.84292687  0.21000660  0.99081528     0.08800
C1332       C  0.84640496  0.22285453  0.95753008    -0.13400
H1333       H  0.84896699  0.26317632  0.92802403     0.12700
H1334       H  0.83615164  0.27425831  0.04070530     0.12700
H1335       H  0.83476370  0.22044885  0.04646156     0.12700
H1336       H  0.84979211  0.20880100  0.93415393     0.12700
C1337       C  0.86766862  0.36633123  0.89181762    -0.16500
C1338       C  0.87330971  0.37095337  0.92590316    -0.31600
H1339       H  0.85140129  0.34959173  0.88416932     0.12600
H1340       H  0.89032752  0.38719186  0.93289435     0.13100
C1341       C  0.89279748  0.36161831  0.56266582    -0.16500
C1342       C  0.86370800  0.35592277  0.55615920    -0.31600
H1343       H  0.91005210  0.35630168  0.54230780     0.12600
H1344       H  0.84607178  0.35931231  0.57652802     0.13100
In1345     In  0.93200965  0.91677430  0.12837757     1.36900
C1346       C  0.91789993  0.90786264  0.19619815     0.77500
O1347       O  0.97532598  0.89042133  0.13427936    -0.60900
O1348       O  0.97659931  0.92872096  0.10239291    -0.51800
C1349       C  0.90401283  0.89137710  0.07372567     0.70200
O1350       O  0.91670618  0.91634404  0.07345616    -0.46700
C1351       C  0.92866002  0.97612565  0.13354762     0.74900
O1352       O  0.90375367  0.92645180  0.17845128    -0.58500
O1353       O  0.90693195  0.96084449  0.12251576    -0.48600
O1354       O  0.93551132  0.89073902  0.17821318    -0.55000
C1355       C  0.99127271  0.90840764  0.11661587     0.85100
O1356       O  0.90457309  0.87854071  0.10293655    -0.56900
O1357       O  0.95116035  0.96103084  0.14224265    -0.60200
In1358     In  0.92702062  0.91870958  0.30332628     1.36900
C1359       C  0.91769539  0.90913993  0.23489980     0.77500
O1360       O  0.94187918  0.96500558  0.29146151    -0.60900
O1361       O  0.90508352  0.96115464  0.32842728    -0.51800
C1362       C  0.89242247  0.88521424  0.34611879     0.70200
O1363       O  0.88333726  0.89557836  0.31793010    -0.46700
C1364       C  0.98536711  0.90870929  0.31264273     0.74900
O1365       O  0.90396396  0.92933020  0.25299768    -0.58500
O1366       O  0.97033688  0.92861921  0.32980718    -0.48600
O1367       O  0.93428118  0.89244375  0.25228042    -0.55000
C1368       C  0.92277799  0.97831566  0.31169158     0.85100
O1369       O  0.91913861  0.89197672  0.35252859    -0.56900
O1370       O  0.97010841  0.89231086  0.29281480    -0.60200
C1371       C  0.86449036  0.84112063  0.42836871     0.86400
C1372       C  0.86705453  0.80706261  0.43247064    -0.53800
C1373       C  0.85131276  0.79648864  0.46125683     0.09400
C1374       C  0.83483686  0.82125952  0.48394121     0.20300
C1375       C  0.83038076  0.84763453  0.42900070    -0.54500
C1376       C  0.81465673  0.83745010  0.45795633     0.09500
C1377       C  0.87485606  0.85433915  0.46318281    -0.54000
C1378       C  0.87008254  0.84251468  0.99979500     0.10000
H1379       H  0.87968482  0.79249866  0.41385552     0.14600
H1380       H  0.83256118  0.81212476  0.01618666     0.00300
H1381       H  0.81907515  0.85871727  0.40822531     0.14900
H1382       H  0.89356053  0.86984581  0.46411740     0.14700
In1383     In  0.92644709  0.56029745  0.14839204     1.36900
C1384       C  0.90772080  0.57466698  0.21404352     0.77500
O1385       O  0.94122232  0.51493917  0.16465541    -0.60900
O1386       O  0.90738092  0.51647699  0.12705013    -0.51800
C1387       C  0.90310151  0.59185968  0.09704939     0.70200
O1388       O  0.88723062  0.58375657  0.12339435    -0.46700
C1389       C  0.98525174  0.56970553  0.14413752     0.74900
O1390       O  0.89565940  0.55402854  0.19655874    -0.58500
O1391       O  0.97267673  0.55081882  0.12459215    -0.48600
O1392       O  0.92645090  0.59015056  0.19666761    -0.55000
C1393       C  0.92401381  0.50044428  0.14527671     0.85100
O1394       O  0.93021502  0.58384135  0.09721444    -0.56900
O1395       O  0.96764928  0.58457385  0.16488327    -0.60200
In1396     In  0.91323841  0.56891210  0.32035367     1.36900
C1397       C  0.90466874  0.57700512  0.25254719     0.77500
O1398       O  0.95665802  0.59451919  0.31081844    -0.60900
O1399       O  0.95548520  0.56192679  0.35043602    -0.51800
C1400       C  0.87888645  0.59808211  0.37071643     0.70200
O1401       O  0.88090465  0.60688743  0.33947266    -0.46700
C1402       C  0.91117675  0.50896800  0.31698550     0.74900
O1403       O  0.88830700  0.55965044  0.27069482    -0.58500
O1404       O  0.93435370  0.52384164  0.30886133    -0.48600
O1405       O  0.92198290  0.59322515  0.27000728    -0.55000
C1406       C  0.97120052  0.58001344  0.33263554     0.85100
O1407       O  0.89379299  0.57457738  0.37554768    -0.56900
O1408       O  0.88835901  0.52468441  0.32653848    -0.60200
C1409       C  0.85204809  0.62458582  0.02776734     0.86400
C1410       C  0.86030385  0.65743679  0.02230853    -0.53800
C1411       C  0.84418837  0.66967095  0.49079208     0.09400
C1412       C  0.82724023  0.64557598  0.46959559     0.20300
C1413       C  0.81794474  0.62344260  0.02395350    -0.54500
C1414       C  0.80202275  0.63490883  0.49593103     0.09500
C1415       C  0.85945519  0.60891018  0.49652479    -0.54000
C1416       C  0.84958474  0.61864752  0.46530538     0.10000
H1417       H  0.87210623  0.67042385  0.04176252     0.14600
H1418       H  0.81900121  0.65389139  0.44445459     0.00300
H1419       H  0.80269994  0.61432691  0.04401567     0.14900
H1420       H  0.87508377  0.59016542  0.49830355     0.14700
In1421     In  0.58130472  0.92733980  0.12298261     1.36900
C1422       C  0.59455549  0.91107108  0.18738795     0.77500
O1423       O  0.60235857  0.97193727  0.13573600    -0.60900
O1424       O  0.56369827  0.97110617  0.10454191    -0.51800
C1425       C  0.61409950  0.90260895  0.06903129     0.70200
O1426       O  0.60162935  0.88685255  0.09252544    -0.46700
C1427       C  0.52167663  0.92108701  0.12111961     0.74900
O1428       O  0.57690071  0.89618659  0.16886040    -0.58500
O1429       O  0.53930339  0.91125841  0.09656793    -0.48600
O1430       O  0.60861375  0.93140557  0.17131480    -0.55000
C1431       C  0.58280842  0.98670379  0.12005870     0.85100
O1432       O  0.61124213  0.93032979  0.07445061    -0.56900
O1433       O  0.53454414  0.93338269  0.14640568    -0.60200
In1434     In  0.58053289  0.91789384  0.29360562     1.36900
C1435       C  0.59429339  0.90898407  0.22577879     0.77500
O1436       O  0.53714741  0.89256416  0.30686541    -0.60900
O1437       O  0.53477031  0.93276221  0.27843400    -0.51800
C1438       C  0.61047471  0.88656162  0.34083892     0.70200
O1439       O  0.61258611  0.88052837  0.30835996    -0.46700
C1440       C  0.58651340  0.97622767  0.30724542     0.74900
O1441       O  0.57627352  0.89220983  0.24255376    -0.58500
O1442       O  0.56671638  0.96038713  0.32241127    -0.48600
O1443       O  0.60829580  0.92738168  0.24453945    -0.55000
C1444       C  0.52065598  0.91147550  0.29240451     0.85100
O1445       O  0.59356795  0.90860658  0.34882964    -0.56900
O1446       O  0.60516149  0.96182777  0.28729096    -0.60200
C1447       C  0.63604986  0.85743586  0.43056503     0.86400
C1448       C  0.67047367  0.86023993  0.43012514    -0.53800
C1449       C  0.68392817  0.84543125  0.45668089     0.09400
C1450       C  0.66102340  0.82909679  0.48123830     0.20300
C1451       C  0.63021928  0.82352524  0.43000704    -0.54500
C1452       C  0.64323302  0.80834523  0.45664830     0.09500
C1453       C  0.62517130  0.86814514  0.46752018    -0.54000
C1454       C  0.64466422  0.85146405  0.99286998     0.10000
H1455       H  0.68290199  0.87236115  0.40988369     0.14600
H1456       H  0.67569173  0.81560352  0.01009270     0.00300
H1457       H  0.61721579  0.81274476  0.40991378     0.14900
H1458       H  0.60777954  0.88517778  0.47248696     0.14700
In1459     In  0.58328467  0.56749667  0.13258858     1.36900
C1460       C  0.59489848  0.58021524  0.19890808     0.77500
O1461       O  0.53919653  0.59207444  0.14367276    -0.60900
O1462       O  0.53945326  0.55296216  0.11074934    -0.51800
C1463       C  0.61432355  0.59774153  0.08256562     0.70200
O1464       O  0.58613413  0.59484890  0.08379296    -0.45900
C1465       C  0.58649979  0.50774664  0.13217574     0.74900
O1466       O  0.57704742  0.59595134  0.18194959    -0.58500
O1467       O  0.59857804  0.52265208  0.10753347    -0.48600
O1468       O  0.61051143  0.56161248  0.18047042    -0.55000
C1469       C  0.52405928  0.57328556  0.12671456     0.85100
O1470       O  0.62712507  0.58579200  0.10775321    -0.56900
O1471       O  0.57341539  0.52330130  0.15616879    -0.60200
In1472     In  0.57736924  0.56612104  0.30338235     1.36900
C1473       C  0.59305215  0.57913130  0.23741390     0.77500
O1474       O  0.59739268  0.52315251  0.32442155    -0.60900
O1475       O  0.56611020  0.52021054  0.28395897    -0.51800
C1476       C  0.60602482  0.59702871  0.35263001     0.70200
O1477       O  0.61734202  0.59261851  0.32207247    -0.46700
C1478       C  0.51782289  0.57361342  0.31152869     0.74900
O1479       O  0.57451954  0.59501382  0.25585136    -0.58500
O1480       O  0.53236701  0.55487915  0.32854633    -0.48600
O1481       O  0.60612580  0.55887110  0.25388131    -0.55000
C1482       C  0.58231684  0.50643975  0.30472374     0.85100
O1483       O  0.58009538  0.58633913  0.35753313    -0.56900
O1484       O  0.53387144  0.59016525  0.29201228    -0.60200
C1485       C  0.62681623  0.62834264  0.44368447     0.86400
C1486       C  0.62351709  0.66231673  0.44062423    -0.53800
C1487       C  0.63573135  0.67853019  0.46735758     0.09400
C1488       C  0.65026453  0.65855096  0.49502066     0.20300
C1489       C  0.66070767  0.62271664  0.44655994    -0.54500
C1490       C  0.67334655  0.63872182  0.47316210     0.09500
C1491       C  0.61283979  0.62133607  0.47999383    -0.54000
C1492       C  0.63074276  0.62946239  0.99092797     0.10000
H1493       H  0.61317951  0.67245852  0.41836226     0.14600
H1494       H  0.66347354  0.66318633  0.01018075     0.00300
H1495       H  0.67350500  0.60750860  0.42886530     0.14900
H1496       H  0.59435246  0.60576875  0.48408374     0.14700
C1497       C  0.62178083  0.61319081  0.38047746    -0.16500
C1498       C  0.61246474  0.61104753  0.41439073    -0.31600
H1499       H  0.64129879  0.62666735  0.37329074     0.12600
H1500       H  0.59351882  0.59665071  0.42118318     0.13100
C1501       C  0.63076799  0.61276383  0.05313180    -0.16500
C1502       C  0.61585647  0.62100330  0.02480596    -0.31600
H1503       H  0.65518558  0.61448775  0.05319530     0.12600
H1504       H  0.59168887  0.61714623  0.02443217     0.13100
C1505       C  0.61589420  0.75946104  0.44780239    -0.13400
C1506       C  0.64023485  0.77522209  0.46144444     0.08800
C1507       C  0.66190858  0.75899593  0.47962110    -0.13400
C1508       C  0.65988918  0.72778086  0.48254305    -0.13400
C1509       C  0.63623009  0.71199503  0.46764227     0.08800
C1510       C  0.61385264  0.72837115  0.45093521    -0.13400
H1511       H  0.59812542  0.77102428  0.43476845     0.12700
H1512       H  0.68065704  0.76972112  0.49051345     0.12700
H1513       H  0.67775023  0.71606399  0.49537728     0.12700
H1514       H  0.59471802  0.71723415  0.44009996     0.12700
C1515       C  0.62620320  0.86913341  0.36737308    -0.16500
C1516       C  0.62099502  0.87463702  0.40202528    -0.31600
H1517       H  0.64175469  0.85135554  0.35853450     0.12600
H1518       H  0.60505882  0.89231001  0.41025273     0.13100
C1519       C  0.63348625  0.86139091  0.02865709    -0.16500
C1520       C  0.62920550  0.89069577  0.03635515    -0.31600
H1521       H  0.62881463  0.84467765  0.04845493     0.12600
H1522       H  0.63579578  0.90709039  0.01679987     0.13100
C1523       C  0.75840695  0.63365571  0.45576210    -0.13400
C1524       C  0.76905746  0.63620489  0.48986142     0.08800
C1525       C  0.74789244  0.63982517  0.51838801    -0.13400
C1526       C  0.71693174  0.64056018  0.51297251    -0.13400
C1527       C  0.70631161  0.63788071  0.47892727     0.08800
C1528       C  0.72739812  0.63451814  0.45034077    -0.13400
H1529       H  0.77392269  0.63054242  0.43324123     0.12700
H1530       H  0.76000689  0.64375721  0.03934426     0.12700
H1531       H  0.70679195  0.64270070  0.02706214     0.12700
H1532       H  0.71996965  0.63284935  0.42365379     0.12700
C1533       C  0.86157517  0.61422323  0.39979154    -0.16500
C1534       C  0.86087445  0.60297103  0.43234581    -0.31600
H1535       H  0.85143576  0.63588459  0.39502872     0.12600
H1536       H  0.87185450  0.58142773  0.43587087     0.13100
C1537       C  0.89171741  0.60876358  0.06758261    -0.16500
C1538       C  0.86226130  0.61179020  0.06180150    -0.31600
H1539       H  0.90826578  0.61682454  0.04817156     0.12600
H1540       H  0.84558018  0.60309665  0.08062698     0.13100
C1541       C  0.76319949  0.81893930  0.47752800    -0.13400
C1542       C  0.78121734  0.84109300  0.46196442     0.08800
C1543       C  0.76691160  0.86602734  0.44760234    -0.13400
C1544       C  0.73551215  0.86778040  0.44681759    -0.13400
C1545       C  0.71738109  0.84475537  0.46046068     0.08800
C1546       C  0.73159488  0.82064759  0.47680939    -0.13400
H1547       H  0.77336137  0.79947595  0.48902383     0.12700
H1548       H  0.77996384  0.88414133  0.43655190     0.12700
H1549       H  0.72558410  0.88730673  0.43530959     0.12700
H1550       H  0.71890726  0.80284699  0.48771785     0.12700
C1551       C  0.82246161  0.74837586  0.46424981    -0.13400
C1552       C  0.84947607  0.76399863  0.46859213     0.08800
C1553       C  0.87508110  0.74823432  0.47866455    -0.13400
C1554       C  0.87349515  0.71750003  0.48534296    -0.13400
C1555       C  0.84645432  0.70178381  0.48117938     0.08800
C1556       C  0.82103657  0.71745130  0.47016028    -0.13400
H1557       H  0.80259453  0.76004935  0.45592001     0.12700
H1558       H  0.89620036  0.75983615  0.48180391     0.12700
H1559       H  0.89342576  0.70594884  0.49373894     0.12700
H1560       H  0.79984789  0.70594806  0.46710025     0.12700
C1561       C  0.87273758  0.86782223  0.37015033    -0.16500
C1562       C  0.88357629  0.85325976  0.39770656    -0.31600
H1563       H  0.84892188  0.86838448  0.36527619     0.12600
H1564       H  0.90790310  0.85173677  0.39990734     0.13100
C1565       C  0.89081572  0.87954243  0.04122117    -0.16500
C1566       C  0.87916468  0.85203680  0.03584583    -0.31600
H1567       H  0.89182963  0.89499590  0.01956838     0.12600
H1568       H  0.87618952  0.83675287  0.05750644     0.13100
In1569     In  0.91768797  0.91734469  0.62507721     1.36900
C1570       C  0.90405101  0.90375556  0.69160726     0.77500
O1571       O  0.96087401  0.89068194  0.62936732    -0.60900
O1572       O  0.96243282  0.93125630  0.60125183    -0.51800
C1573       C  0.89160160  0.89345880  0.56799434     0.70200
O1574       O  0.90415047  0.91853376  0.56912219    -0.46700
C1575       C  0.91244679  0.97646257  0.63664330     0.74900
O1576       O  0.92508449  0.89095389  0.67363773    -0.58500
O1577       O  0.93629799  0.96174282  0.64072943    -0.48600
O1578       O  0.88697386  0.91997380  0.67419268    -0.55000
C1579       C  0.97696534  0.90998258  0.61394091     0.85100
O1580       O  0.89133098  0.87998259  0.59682262    -0.56900
O1581       O  0.89045463  0.96096577  0.62681521    -0.60200
In1582     In  0.91293342  0.91427637  0.79819212     1.36900
C1583       C  0.90314704  0.90382395  0.73026922     0.77500
O1584       O  0.88947582  0.95555069  0.82466451    -0.60900
O1585       O  0.92584910  0.96129354  0.78759893    -0.51800
C1586       C  0.88622111  0.87819386  0.84495167     0.70200
O1587       O  0.87299045  0.88663892  0.81816554    -0.46700
C1588       C  0.97176606  0.90798332  0.80457793     0.74900
O1589       O  0.92181820  0.88899999  0.74702021    -0.58500
O1590       O  0.95617439  0.92685697  0.82264841    -0.48600
O1591       O  0.88697667  0.92182271  0.74901013    -0.55000
C1592       C  0.90703694  0.97357807  0.80905097     0.85100
O1593       O  0.91253385  0.88795913  0.84719847    -0.56900
O1594       O  0.95708164  0.89117100  0.78459940    -0.60200
C1595       C  0.86920977  0.84368913  0.93571656     0.86400
C1596       C  0.87040814  0.80934805  0.93582839    -0.53800
C1597       C  0.85721423  0.79713737  0.96544950     0.09400
C1598       C  0.84385485  0.82106701  0.99212161     0.20300
C1599       C  0.83580083  0.85195560  0.94133454    -0.54500
C1600       C  0.82224795  0.83974777  0.97048752     0.09500
C1601       C  0.88357544  0.85359909  0.96987548    -0.54000
C1602       C  0.85954326  0.84438141  0.49260252     0.10000
H1603       H  0.88126427  0.79612356  0.91456857     0.14600
H1604       H  0.82246027  0.81273970  0.50760165     0.00300
H1605       H  0.82357009  0.86518583  0.92289393     0.14900
H1606       H  0.90276730  0.86854639  0.97013789     0.14700
In1607     In  0.92563224  0.56487527  0.64655281     1.36900
C1608       C  0.90733725  0.57719590  0.71269886     0.77500
O1609       O  0.93603932  0.51949210  0.66576241    -0.60900
O1610       O  0.90949577  0.52138810  0.62078624    -0.51800
C1611       C  0.90067709  0.59704487  0.59704629     0.70200
O1612       O  0.92857346  0.59320710  0.59886185    -0.46700
C1613       C  0.98488244  0.57231283  0.64119524     0.74900
O1614       O  0.89432843  0.55818994  0.69384648    -0.58500
O1615       O  0.97166008  0.55211279  0.62415939    -0.48600
O1616       O  0.92657274  0.59288957  0.69640365    -0.55000
C1617       C  0.92203115  0.50519680  0.64287415     0.85100
O1618       O  0.88501470  0.58484769  0.62110888    -0.56900
O1619       O  0.96770912  0.58950389  0.65978038    -0.60200
In1620     In  0.91316528  0.56454640  0.81783856     1.36900
C1621       C  0.90470099  0.57695536  0.75119045     0.77500
O1622       O  0.95539131  0.58695496  0.83789784    -0.60900
O1623       O  0.96019927  0.55230314  0.79913923    -0.51800
C1624       C  0.88086839  0.59502698  0.86852489     0.70200
O1625       O  0.89615213  0.57176927  0.87348698    -0.46700
C1626       C  0.90631958  0.50556801  0.82560341     0.74900
O1627       O  0.88926983  0.55763525  0.76748754    -0.58500
O1628       O  0.92667037  0.52050139  0.83971449    -0.48600
O1629       O  0.92144551  0.59263684  0.77010141    -0.55000
C1630       C  0.97311625  0.57058013  0.81895544     0.85100
O1631       O  0.88105661  0.60265077  0.83683022    -0.56900
O1632       O  0.88758936  0.52105502  0.80953098    -0.60200
C1633       C  0.84709787  0.62658958  0.52880419     0.86400
C1634       C  0.85474153  0.65942831  0.52164894    -0.53800
C1635       C  0.85078186  0.66899493  0.99149865     0.09400
C1636       C  0.83461552  0.64562678  0.96835336     0.20300
C1637       C  0.81287311  0.62479780  0.52668885    -0.54500
C1638       C  0.80846511  0.63455376  0.99302043     0.09500
C1639       C  0.86533584  0.60778865  0.99534477    -0.54000
C1640       C  0.85671477  0.61855748  0.96406300     0.10000
H1641       H  0.86641416  0.67362261  0.54010437     0.14600
H1642       H  0.82704626  0.65462434  0.94327193     0.00300
H1643       H  0.79858677  0.61594197  0.54781446     0.14900
H1644       H  0.88057642  0.58873003  0.99711366     0.14700
In1645     In  0.58278018  0.91655762  0.63121549     1.36900
C1646       C  0.58516865  0.91260892  0.70119149     0.77500
O1647       O  0.60488091  0.96088590  0.64056203    -0.60900
O1648       O  0.56835712  0.95860120  0.60594122    -0.51800
C1649       C  0.62022253  0.89020058  0.58303570     0.70200
O1650       O  0.59615374  0.87821144  0.59421463    -0.46700
C1651       C  0.52512800  0.90450900  0.62141894     0.74900
O1652       O  0.59801766  0.89301213  0.68108382    -0.58500
O1653       O  0.54003013  0.92264009  0.60285020    -0.48600
O1654       O  0.57267355  0.93342693  0.68542780    -0.55000
C1655       C  0.58667955  0.97479822  0.62197796     0.85100
O1656       O  0.62681411  0.91391864  0.59923519    -0.56900
O1657       O  0.54031187  0.89032694  0.64301626    -0.60200
In1658     In  0.57291513  0.91515885  0.80981323     1.36900
C1659       C  0.58284553  0.91224073  0.73988058     0.77500
O1660       O  0.53220368  0.88937780  0.79319984    -0.60900
O1661       O  0.52607959  0.92497278  0.83094578    -0.51800
C1662       C  0.59990616  0.88133448  0.85663925     0.70200
O1663       O  0.57326338  0.87755339  0.84772872    -0.46700
C1664       C  0.57805808  0.97303149  0.82491556     0.74900
O1665       O  0.59481837  0.89322238  0.75932973    -0.58500
O1666       O  0.55999311  0.95631156  0.84150518    -0.48600
O1667       O  0.56712619  0.93187125  0.75627941    -0.55000
C1668       C  0.51398647  0.90561327  0.81168040     0.85100
O1669       O  0.61398121  0.90134735  0.83985574    -0.56900
O1670       O  0.59685066  0.95947633  0.80429084    -0.60200
C1671       C  0.65074393  0.85199259  0.92893765     0.86400
C1672       C  0.68448146  0.85499226  0.93456085    -0.53800
C1673       C  0.69389420  0.84164595  0.96427389     0.09400
C1674       C  0.66826650  0.82624579  0.98576631     0.20300
C1675       C  0.64492849  0.81823138  0.92956501    -0.54500
C1676       C  0.65360740  0.80452912  0.95941480     0.09500
C1677       C  0.63541345  0.86469317  0.96295802    -0.54000
C1678       C  0.63814885  0.85332293  0.49393160     0.10000
H1679       H  0.69972359  0.86647764  0.91634927     0.14600
H1680       H  0.67101185  0.81782875  0.50364837     0.00300
H1681       H  0.63496136  0.80623578  0.90788598     0.14900
H1682       H  0.61880394  0.88272654  0.96327388     0.14700
In1683     In  0.56453772  0.57165072  0.63826688     1.36900
C1684       C  0.57464929  0.58277620  0.70530364     0.77500
O1685       O  0.52006290  0.59512696  0.65103273    -0.60900
O1686       O  0.52082096  0.55854999  0.61444698    -0.51800
C1687       C  0.60173049  0.60099888  0.59309139     0.70200
O1688       O  0.57401145  0.60703519  0.59721542    -0.45900
C1689       C  0.56764271  0.51180047  0.63460047     0.74900
O1690       O  0.55600490  0.59803743  0.68895905    -0.58500
O1691       O  0.57138729  0.52755422  0.60759213    -0.48600
O1692       O  0.59125928  0.56551559  0.68621810    -0.55000
C1693       C  0.50512836  0.57737399  0.63252963     0.85100
O1694       O  0.61070909  0.58124528  0.61331737    -0.56900
O1695       O  0.56199592  0.52653588  0.66263036    -0.60200
In1696     In  0.55967405  0.56415719  0.80941247     1.36900
C1697       C  0.57303180  0.58039492  0.74360737     0.77500
O1698       O  0.58726779  0.52182445  0.79929221    -0.60900
O1699       O  0.54942480  0.51994889  0.83488440    -0.51800
C1700       C  0.58574471  0.59998443  0.85579921     0.70200
O1701       O  0.59820101  0.57647376  0.84333513    -0.46700
C1702       C  0.49967619  0.56263252  0.81425828     0.74900
O1703       O  0.55406131  0.59466175  0.76317873    -0.58500
O1704       O  0.51462677  0.55771447  0.78570544    -0.48600
O1705       O  0.58716056  0.56021021  0.75871157    -0.55000
C1706       C  0.57056365  0.50586539  0.81862632     0.85100
O1707       O  0.56075109  0.60596896  0.84330440    -0.56900
O1708       O  0.51539069  0.56774876  0.84054598    -0.60200
C1709       C  0.63739292  0.62855115  0.92735686     0.86400
C1710       C  0.63374771  0.66266821  0.92929802    -0.53800
C1711       C  0.64339466  0.67558832  0.95972993     0.09400
C1712       C  0.65616932  0.65268722  0.98535120     0.20300
C1713       C  0.67086843  0.62287367  0.93295561    -0.54500
C1714       C  0.68124841  0.63603093  0.96289025     0.09500
C1715       C  0.62095324  0.61726732  0.96045161    -0.54000
C1716       C  0.62497652  0.63692849  0.50696123     0.10000
H1717       H  0.62522066  0.67545561  0.90781360     0.14600
H1718       H  0.65986266  0.67131725  0.51714660     0.00300
H1719       H  0.68508007  0.60993033  0.91425046     0.14900
H1720       H  0.60300646  0.60082718  0.95982674     0.14700
C1721       C  0.59824668  0.61813632  0.88414663    -0.16500
C1722       C  0.62654216  0.61400409  0.89420964    -0.31600
H1723       H  0.58332666  0.63396258  0.89851380     0.12600
H1724       H  0.64161989  0.59874948  0.87917159     0.13100
C1725       C  0.62165083  0.61380097  0.56504010    -0.16500
C1726       C  0.61160377  0.63446052  0.54308545    -0.31600
H1727       H  0.64343486  0.60306353  0.55929787     0.12600
H1728       H  0.58926445  0.64418985  0.54801027     0.13100
C1729       C  0.62388137  0.75764878  0.95067885    -0.13400
C1730       C  0.64899906  0.77184239  0.96472296     0.08800
C1731       C  0.67029563  0.75423528  0.98151429    -0.13400
C1732       C  0.66781557  0.72288378  0.98149291    -0.13400
C1733       C  0.64378897  0.70870246  0.96509985     0.08800
C1734       C  0.62129224  0.72653738  0.95088958    -0.13400
H1735       H  0.60640910  0.77057428  0.93875814     0.12700
H1736       H  0.68952691  0.76437643  0.99310822     0.12700
H1737       H  0.68555404  0.70976908  0.99266817     0.12700
H1738       H  0.60199113  0.71638232  0.93904392     0.12700
C1739       C  0.61213567  0.86448851  0.88584097    -0.16500
C1740       C  0.64061004  0.86708018  0.89606416    -0.31600
H1741       H  0.59653201  0.85041842  0.90071895     0.12600
H1742       H  0.65651384  0.88067926  0.88098706     0.13100
C1743       C  0.62713325  0.85742234  0.53079930    -0.16500
C1744       C  0.63772086  0.87930940  0.55141619    -0.31600
H1745       H  0.60695683  0.84532225  0.53898726     0.12600
H1746       H  0.65715069  0.89216282  0.54229278     0.13100
C1747       C  0.76687497  0.63308881  0.95045765    -0.13400
C1748       C  0.77598036  0.63627564  0.98510424     0.08800
C1749       C  0.75376799  0.64044128  0.01236174    -0.13400
C1750       C  0.72311984  0.64031200  0.00525415    -0.13400
C1751       C  0.71391224  0.63640843  0.97065640     0.08800
C1752       C  0.73625722  0.63337240  0.94327663    -0.13400
H1753       H  0.78332403  0.62974631  0.92887671     0.12700
H1754       H  0.75513294  0.64248690  0.54504872     0.12700
H1755       H  0.70132087  0.64288831  0.53553102     0.12700
H1756       H  0.73029934  0.63136195  0.91608126     0.12700
C1757       C  0.86500361  0.61204004  0.89792552    -0.16500
C1758       C  0.86882572  0.60348395  0.93113312    -0.31600
H1759       H  0.85156349  0.63168920  0.89248279     0.12600
H1760       H  0.88298048  0.58390406  0.93494980     0.13100
C1761       C  0.88816862  0.61351511  0.56795101    -0.16500
C1762       C  0.85852755  0.61483082  0.56270118    -0.31600
H1763       H  0.90398681  0.62270933  0.54849876     0.12600
H1764       H  0.84262378  0.60544949  0.58192523     0.13100
C1765       C  0.77246176  0.81625274  0.98585775    -0.13400
C1766       C  0.78918967  0.84187421  0.97730462     0.08800
C1767       C  0.77384772  0.86853690  0.97016653    -0.13400
C1768       C  0.74253306  0.86888027  0.96842179    -0.13400
C1769       C  0.72593244  0.84258570  0.97379573     0.08800
C1770       C  0.74095251  0.81662141  0.98416391    -0.13400
H1771       H  0.78380562  0.79535077  0.99124559     0.12700
H1772       H  0.78622091  0.88875069  0.96415844     0.12700
H1773       H  0.73138944  0.88940333  0.96120932     0.12700
H1774       H  0.72878160  0.79617999  0.98841571     0.12700
C1775       C  0.85601597  0.74309436  0.94312431    -0.13400
C1776       C  0.85570988  0.76414706  0.97133840     0.08800
C1777       C  0.85372310  0.75346592  0.00574134    -0.13400
C1778       C  0.85187031  0.72284526  0.01195498    -0.13400
C1779       C  0.85262422  0.70169610  0.98398053     0.08800
C1780       C  0.85452287  0.71220648  0.94939500    -0.13400
H1781       H  0.85707853  0.75038843  0.91616684     0.12700
H1782       H  0.85400104  0.76864242  0.02823154     0.12700
H1783       H  0.84952109  0.71588912  0.03897673     0.12700
H1784       H  0.85518506  0.69663907  0.92718396     0.12700
C1785       C  0.87208251  0.85936226  0.87234644    -0.16500
C1786       C  0.88439500  0.85791414  0.90400935    -0.31600
H1787       H  0.85062827  0.84875785  0.86766591     0.12600
H1788       H  0.90521080  0.86994337  0.90817385     0.13100
C1789       C  0.87960168  0.88189104  0.53456405    -0.16500
C1790       C  0.86693564  0.85481152  0.52902013    -0.31600
H1791       H  0.88235656  0.89696946  0.51267577     0.12600
H1792       H  0.86236583  0.84011155  0.55094775     0.13100
loop_ 
_geom_bond_atom_site_label_1 
_geom_bond_atom_site_label_2 
_geom_bond_distance 
_geom_bond_site_symmetry_2 
_ccdc_geom_bond_type 
In1           O3   2.243       .  S
In1           O4   2.246       .  S
In1          O12   2.225       .  S
In1           O6   2.305       .  S
In1           O8   2.258       .  S
In1           O9   2.284       .  S
In1          O10   2.246       .  S
In1          O13   2.211       .  S
C2            O8   1.260       .  A
C2           O10   1.259       .  A
C2           C15   1.467       .  S
O3           C11   1.263       .  A
O4           C11   1.261       .  A
C5           O12   1.254       .  A
C5            O6   1.262       .  A
C5          C221   1.476       .  S
C7            O9   1.264       .  A
C7           O13   1.255       .  A
C7          C497   1.461       .  S
C11         C979   1.463       .  S
In14         O16   2.283       .  S
In14         O17   2.219       .  S
In14         O25   2.242       .  S
In14         O19   2.274       .  S
In14         O21   2.260       .  S
In14         O22   2.250       .  S
In14         O23   2.244       .  S
In14         O26   2.283       .  S
C15          O21   1.262       .  A
C15          O23   1.260       .  A
O16          C24   1.263       .  A
O17          C24   1.258       .  A
C18          O25   1.258       .  A
C18          O19   1.256       .  A
C18         C217   1.477       .  S
C20          O22   1.257       .  A
C20          O26   1.262       .  A
C20         C996   1.475       .  S
C24         C506   1.465       .  S
C27          C28   1.532       .  S
C27          C33   1.524       .  S
C27          C31   1.533       .  S
C27         C218   1.510       .  S
C28          H35   1.086       .  S
C28          C29   1.364       .  D
C29         C208   1.478       .  S
C29          C30   1.546       .  S
C30          C32   1.549       .  S
C30         C258   1.544       .  S
C30         H260   1.110       .  S
C31          H37   1.085       .  S
C31          C32   1.375       .  D
C32         C198   1.492       .  S
C33          H38   1.086       .  S
C33         C258   1.364       .  D
C34         C254   1.548       .  S
C34         C257   1.364   1_554  D
C34         C222   1.495       .  S
H36         C254   1.110       .  S
In39         O41   2.264       .  S
In39         O42   2.258       .  S
In39         O50   2.281       .  S
In39         O44   2.256       .  S
In39         O46   2.265       .  S
In39         O47   2.284       .  S
In39         O48   2.260       .  S
In39         O51   2.218       .  S
C40          O46   1.262       .  A
C40          O48   1.263       .  A
C40          C53   1.477       .  S
O41          C49   1.262       .  A
O42          C49   1.258       .  A
C43          O50   1.259       .  A
C43          O44   1.256       .  A
C43         C193   1.483       .  S
C45          O47   1.263       .  A
C45          O51   1.256       .  A
C45        C1021   1.464       .  S
C49         C455   1.472   1_545  S
In52         O54   2.294       .  S
In52         O55   2.229       .  S
In52         O63   2.317       .  S
In52         O57   2.234       .  S
In52         O59   2.269       .  S
In52         O60   2.231       .  S
In52         O61   2.263       .  S
In52         O64   2.269       .  S
C53          O59   1.261       .  A
C53          O61   1.260       .  A
O54          C62   1.263       .  A
O55          C62   1.256       .  A
C56          O63   1.263       .  A
C56          O57   1.252       .  A
C56         C189   1.483       .  S
C58          O60   1.260       .  A
C58          O64   1.264       .  A
C58         C472   1.467   1_545  S
C62        C1030   1.470       .  S
C65          C66   1.536       .  S
C65          C69   1.539       .  S
C65         C194   1.518       .  S
C65         C295   1.536   1_554  S
C66          H73   1.086       .  S
C66         C291   1.366   1_554  D
C67         C211   1.481       .  S
C67          C68   1.544       .  S
C67         C290   1.364       .  D
C68          C72   1.549       .  S
C68          C70   1.549       .  S
C68          H74   1.109       .  S
C69          H75   1.085       .  S
C69         C294   1.374   1_554  D
C70         C180   1.495       .  S
C70         C293   1.371       .  D
C71         C289   1.531       .  S
C71          H76   1.085       .  S
C71          C72   1.372       .  D
C72         C190   1.501       .  S
In77         O79   2.228       .  S
In77         O80   2.281       .  S
In77         O88   2.261       .  S
In77         O82   2.246       .  S
In77         O84   2.250       .  S
In77         O85   2.259       .  S
In77         O86   2.247       .  S
In77         O89   2.249       .  S
C78          O84   1.258       .  A
C78          O86   1.258       .  A
C78          C91   1.460       .  S
O79          C87   1.259       .  A
O80          C87   1.263       .  A
C81          O88   1.256       .  A
C81          O82   1.257       .  A
C81         C176   1.473       .  S
C83          O85   1.261       .  A
C83          O89   1.258       .  A
C83         C907   1.466   1_455  S
C87         C569   1.468       .  S
In90         O92   2.258       .  S
In90         O93   2.250       .  S
In90        O101   2.244       .  S
In90         O95   2.257       .  S
In90         O97   2.242       .  S
In90         O98   2.219       .  S
In90         O99   2.237       .  S
In90        O102   2.280       .  S
C91          O97   1.262       .  A
C91          O99   1.261       .  A
O92         C100   1.260       .  A
O93         C100   1.260       .  A
C94         O101   1.258       .  A
C94          O95   1.256       .  A
C94         C171   1.471       .  S
C96          O98   1.256       .  A
C96         O102   1.263       .  A
C96         C586   1.463       .  S
C100        C916   1.467   1_455  S
C103        C104   1.531       .  S
C103        C109   1.526       .  S
C103        C107   1.529       .  S
C103        C172   1.507       .  S
C104        H111   1.085       .  S
C104        C105   1.372       .  D
C105        C201   1.496       .  S
C105        C106   1.551       .  S
C106        C108   1.549       .  S
C106        C334   1.539       .  S
C106        H336   1.109       .  S
C107        H113   1.086       .  S
C107        C108   1.368       .  D
C108        C162   1.489       .  S
C109        H114   1.087       .  S
C109        C334   1.360       .  D
C110        C330   1.536       .  S
C110        C333   1.361   1_554  D
C110        C175   1.470       .  S
H112        C330   1.109       .  S
In115       O117   2.254       .  S
In115       O118   2.250       .  S
In115       O126   2.287       .  S
In115       O120   2.230       .  S
In115       O122   2.242       .  S
In115       O123   2.212       .  S
In115       O124   2.236       .  S
In115       O127   2.294       .  S
C116        O122   1.262       .  A
C116        O124   1.260       .  A
C116        C129   1.460       .  S
O117        C125   1.260       .  A
O118        C125   1.260       .  A
C119        O126   1.259       .  A
C119        O120   1.257       .  A
C119        C157   1.482       .  S
C121        O123   1.255       .  A
C121        O127   1.264       .  A
C121        C535   1.467   1_545  S
C125        C941   1.467   1_455  S
In128       O130   2.280       .  S
In128       O131   2.232       .  S
In128       O139   2.237       .  S
In128       O133   2.272       .  S
In128       O135   2.241       .  S
In128       O136   2.233       .  S
In128       O137   2.242       .  S
In128       O140   2.268       .  S
C129        O135   1.261       .  A
C129        O137   1.262       .  A
O130        C138   1.263       .  A
O131        C138   1.258       .  A
C132        O139   1.257       .  A
C132        O133   1.257       .  A
C132        C153   1.477       .  S
C134        O136   1.258       .  A
C134        O140   1.261       .  A
C134        C958   1.462   1_455  S
C138        C544   1.469   1_545  S
C141        C142   1.531       .  S
C141        C147   1.526       .  S
C141        C145   1.534       .  S
C141        C154   1.511       .  S
C142        H149   1.086       .  S
C142        C143   1.371       .  D
C143        C165   1.484       .  S
C143        C144   1.544       .  S
C144        C146   1.549       .  S
C144        C372   1.541       .  S
C144        H374   1.109       .  S
C145        H151   1.086       .  S
C145        C146   1.371       .  D
C146        C183   1.489       .  S
C147        H152   1.085       .  S
C147        C372   1.365       .  D
C148        C368   1.549       .  S
C148        C371   1.361       .  D
C148        C158   1.482   1_556  S
H150        C368   1.108   1_554  S
C153        H155   1.086       .  S
C153        C154   1.342       .  D
C154        H156   1.088       .  S
C157        H159   1.085       .  S
C157        C158   1.342       .  D
C158        H160   1.088       .  S
C161        C162   1.407       .  A
C161        C166   1.396       .  A
C161        H167   1.083       .  S
C162        C163   1.404       .  A
C163        C164   1.399       .  A
C163        H168   1.074       .  S
C164        C165   1.404       .  A
C164        H169   1.083       .  S
C165        C166   1.404       .  A
C166        H170   1.082       .  S
C171        H173   1.086       .  S
C171        C172   1.341       .  D
C172        H174   1.087       .  S
C175        H177   1.087       .  S
C175        C176   1.339       .  D
C176        H178   1.087       .  S
C179        C180   1.406       .  A
C179        C184   1.402       .  A
C179        H185   1.082       .  S
C180        C181   1.409       .  A
C181        C182   1.398       .  A
C181        H410   1.081       .  S
C182        C183   1.402       .  A
C182        H411   1.082       .  S
C183        C184   1.408       .  A
C184        H188   1.083       .  S
H186        C405   1.082       .  S
H187        C406   1.082   1_554  S
C189        H191   1.085       .  S
C189        C190   1.349       .  D
C190        H192   1.086       .  S
C193        H195   1.086       .  S
C193        C194   1.347       .  D
C194        H196   1.087       .  S
C197        C198   1.405       .  A
C197        C202   1.400       .  A
C197        H203   1.081       .  S
C198        C199   1.405       .  A
C199        C200   1.397       .  A
C199        H204   1.082       .  S
C200        C201   1.408       .  A
C200        H205   1.082       .  S
C201        C202   1.406       .  A
C202        H206   1.074       .  S
C207        C208   1.403       .  A
C207        C212   1.401       .  A
C207        H213   1.082       .  S
C208        C209   1.403       .  A
C209        C210   1.399       .  A
C209        H214   1.083       .  S
C210        C211   1.405       .  A
C210        H215   1.083       .  S
C211        C212   1.404       .  A
C212        H216   1.083       .  S
C217        H219   1.086       .  S
C217        C218   1.341       .  D
C218        H220   1.088       .  S
C221        H223   1.086       .  S
C221        C222   1.349       .  D
C222        H224   1.085       .  S
In225       O227   2.236       .  S
In225       O228   2.245       .  S
In225       O236   2.295       .  S
In225       O230   2.214       .  S
In225       O232   2.242       .  S
In225       O233   2.223       .  S
In225       O234   2.240       .  S
In225       O237   2.292       .  S
C226        O232   1.259       .  A
C226        O234   1.261       .  A
C226        C239   1.461       .  S
O227        C235   1.261       .  A
O228        C235   1.262       .  A
C229        O236   1.261       .  A
C229        O230   1.252       .  A
C229        C445   1.469       .  S
C231        O233   1.255       .  A
C231        O237   1.263       .  A
C231        C721   1.467       .  S
C235       C1203   1.460       .  S
In238       O240   2.267       .  S
In238       O241   2.248       .  S
In238       O249   2.220       .  S
In238       O243   2.277       .  S
In238       O245   2.250       .  S
In238       O246   2.279       .  S
In238       O247   2.235       .  S
In238       O250   2.227       .  S
C239        O245   1.262       .  A
C239        O247   1.260       .  A
O240        C248   1.260       .  A
O241        C248   1.258       .  A
C242        O249   1.256       .  A
C242        O243   1.258       .  A
C242        C441   1.475       .  S
C244        O246   1.262       .  A
C244        O250   1.259       .  A
C244       C1220   1.467       .  S
C248        C730   1.468       .  S
C251        C252   1.531       .  S
C251        C257   1.526       .  S
C251        C255   1.531       .  S
C251        C442   1.507       .  S
C252        H259   1.086       .  S
C252        C253   1.366       .  D
C253        C432   1.480       .  S
C253        C254   1.549   1_556  S
C254        C256   1.550   1_554  S
C255        H261   1.086       .  S
C255        C256   1.371       .  D
C256        C422   1.493       .  S
C257        H262   1.087       .  S
C258        C446   1.490       .  S
In263       O265   2.273       .  S
In263       O266   2.234       .  S
In263       O274   2.270       .  S
In263       O268   2.255       .  S
In263       O270   2.265       .  S
In263       O271   2.270       .  S
In263       O272   2.270       .  S
In263       O275   2.255       .  S
C264        O270   1.258       .  A
C264        O272   1.259       .  A
C264        C277   1.473       .  S
O265        C273   1.261   1_545  A
O266        C273   1.260   1_545  A
C267        O274   1.260       .  A
C267        O268   1.256       .  A
C267        C417   1.477       .  S
C269        O271   1.261       .  A
C269        O275   1.258       .  A
C269       C1245   1.471       .  S
C273        C679   1.467       .  S
In276       O278   2.255       .  S
In276       O279   2.259       .  S
In276       O287   2.299       .  S
In276       O281   2.263       .  S
In276       O283   2.269       .  S
In276       O284   2.237       .  S
In276       O285   2.271       .  S
In276       O288   2.275       .  S
C277        O283   1.256       .  A
C277        O285   1.257       .  A
O278        C286   1.259       .  A
O279        C286   1.261       .  A
C280        O287   1.259       .  A
C280        O281   1.255       .  A
C280        C413   1.485       .  S
C282        O284   1.259       .  A
C282        O288   1.263       .  A
C282        C696   1.468   1_545  S
C286       C1254   1.467       .  S
C289        C290   1.530       .  S
C289        C293   1.534       .  S
C289        C418   1.517       .  S
C290        H297   1.087       .  S
C291        C435   1.489       .  S
C291        C292   1.544       .  S
C292        C296   1.542       .  S
C292        C294   1.548       .  S
C292        H298   1.108       .  S
C293        H299   1.085       .  S
C294        C404   1.494       .  S
C295        H300   1.087       .  S
C295        C296   1.364       .  D
C296        C414   1.492       .  S
In301       O303   2.226       .  S
In301       O304   2.263       .  S
In301       O312   2.268       .  S
In301       O306   2.241       .  S
In301       O308   2.245       .  S
In301       O309   2.259       .  S
In301       O310   2.263       .  S
In301       O313   2.237       .  S
C302        O308   1.257       .  A
C302        O310   1.261       .  A
C302        C315   1.467       .  S
O303        C311   1.259       .  A
O304        C311   1.262       .  A
C305        O312   1.258       .  A
C305        O306   1.256       .  A
C305        C400   1.474       .  S
C307        O309   1.260       .  A
C307        O313   1.258       .  A
C307       C1131   1.461   1_455  S
C311        C793   1.459       .  S
In314       O316   2.298       .  S
In314       O317   2.219       .  S
In314       O325   2.271       .  S
In314       O319   2.262       .  S
In314       O321   2.250       .  S
In314       O322   2.243       .  S
In314       O323   2.255       .  S
In314       O326   2.257       .  S
C315        O321   1.261       .  A
C315        O323   1.260       .  A
O316        C324   1.265       .  A
O317        C324   1.255       .  A
C318        O325   1.259       .  A
C318        O319   1.258       .  A
C318        C395   1.482       .  S
C320        O322   1.260       .  A
C320        O326   1.261       .  A
C320        C810   1.465       .  S
C324       C1140   1.469   1_455  S
C327        C328   1.534       .  S
C327        C333   1.529       .  S
C327        C331   1.532       .  S
C327        C396   1.520       .  S
C328        H335   1.085       .  S
C328        C329   1.376       .  D
C329        C425   1.500       .  S
C329        C330   1.552   1_556  S
C330        C332   1.543   1_554  S
C331        H337   1.086       .  S
C331        C332   1.370       .  D
C332        C386   1.487       .  S
C333        H338   1.087   1_556  S
C334        C399   1.470       .  S
In339       O341   2.270       .  S
In339       O342   2.237       .  S
In339       O350   2.208       .  S
In339       O344   2.314       .  S
In339       O346   2.257       .  S
In339       O347   2.236       .  S
In339       O348   2.242       .  S
In339       O351   2.251       .  S
C340        O346   1.259       .  A
C340        O348   1.259       .  A
C340        C353   1.464       .  S
O341        C349   1.262       .  A
O342        C349   1.258       .  A
C343        O350   1.251       .  A
C343        O344   1.263       .  A
C343        C381   1.473       .  S
C345        O347   1.259       .  A
C345        O351   1.262       .  A
C345        C759   1.459   1_545  S
C349       C1165   1.467   1_455  S
In352       O354   2.235       .  S
In352       O355   2.261       .  S
In352       O363   2.248       .  S
In352       O357   2.264       .  S
In352       O359   2.260       .  S
In352       O360   2.267       .  S
In352       O361   2.244       .  S
In352       O364   2.252       .  S
C353        O359   1.260       .  A
C353        O361   1.258       .  A
O354        C362   1.260       .  A
O355        C362   1.262       .  A
C356        O363   1.253       .  A
C356        O357   1.258       .  A
C356        C377   1.469       .  S
C358        O360   1.259       .  A
C358        O364   1.257       .  A
C358       C1182   1.467   1_455  S
C362        C768   1.463   1_545  S
C365        C366   1.525       .  S
C365        C371   1.523       .  S
C365        C369   1.533       .  S
C365        C378   1.509       .  S
C366        H373   1.086       .  S
C366        C367   1.367       .  D
C367        C389   1.482       .  S
C367        C368   1.546       .  S
C368        C370   1.550       .  S
C369        H375   1.085       .  S
C369        C370   1.374       .  D
C370        C407   1.493       .  S
C371        H376   1.087       .  S
C372        C382   1.496       .  S
C377        H379   1.087       .  S
C377        C378   1.340       .  D
C378        H380   1.087       .  S
C381        H383   1.086       .  S
C381        C382   1.346       .  D
C382        H384   1.085       .  S
C385        C386   1.405       .  A
C385        C390   1.393       .  A
C385        H391   1.083       .  S
C386        C387   1.406       .  A
C387        C388   1.402       .  A
C387        H392   1.079   1_556  S
C388        C389   1.404       .  A
C388        H393   1.083       .  S
C389        C390   1.404       .  A
C390        H394   1.083       .  S
C395        H397   1.086       .  S
C395        C396   1.345       .  D
C396        H398   1.087       .  S
C399        H401   1.086       .  S
C399        C400   1.341       .  D
C400        H402   1.087       .  S
C403        C404   1.405       .  A
C403        C408   1.396       .  A
C403        H409   1.081       .  S
C404        C405   1.408   1_556  A
C405        C406   1.403   1_554  A
C406        C407   1.406       .  A
C407        C408   1.406       .  A
C408        H412   1.082       .  S
C413        H415   1.087       .  S
C413        C414   1.348       .  D
C414        H416   1.085       .  S
C417        H419   1.087       .  S
C417        C418   1.343       .  D
C418        H420   1.087       .  S
C421        C422   1.404       .  A
C421        C426   1.403   1_556  A
C421        H427   1.081   1_556  S
C422        C423   1.406       .  A
C423        C424   1.398       .  A
C423        H428   1.082       .  S
C424        C425   1.408       .  A
C424        H429   1.082       .  S
C425        C426   1.408   1_556  A
C426        H430   1.078       .  S
C431        C432   1.401       .  A
C431        C436   1.400       .  A
C431        H437   1.082       .  S
C432        C433   1.404       .  A
C433        C434   1.402       .  A
C433        H438   1.083       .  S
C434        C435   1.407       .  A
C434        H439   1.083       .  S
C435        C436   1.406       .  A
C436        H440   1.083       .  S
C441        H443   1.087       .  S
C441        C442   1.342       .  D
C442        H444   1.088       .  S
C445        H447   1.087       .  S
C445        C446   1.346       .  D
C446        H448   1.085       .  S
In449       O451   2.233       .  S
In449       O452   2.267       .  S
In449       O460   2.288       .  S
In449       O454   2.253       .  S
In449       O456   2.254       .  S
In449       O457   2.266       .  S
In449       O458   2.247       .  S
In449       O461   2.253       .  S
C450        O456   1.258       .  A
C450        O458   1.257       .  A
C450        C463   1.463       .  S
O451        C459   1.258       .  A
O452        C459   1.263       .  A
C453        O460   1.260       .  A
C453        O454   1.254       .  A
C453        C669   1.478       .  S
C455        O457   1.262       .  A
C455        O461   1.258       .  A
C459       C1427   1.463       .  S
In462       O464   2.274       .  S
In462       O465   2.239       .  S
In462       O473   2.244       .  S
In462       O467   2.275       .  S
In462       O469   2.250       .  S
In462       O470   2.231       .  S
In462       O471   2.240       .  S
In462       O474   2.277       .  S
C463        O469   1.262       .  A
C463        O471   1.261       .  A
O464        C472   1.261       .  A
O465        C472   1.257       .  A
C466        O473   1.257       .  A
C466        O467   1.257       .  A
C466        C665   1.479       .  S
C468        O470   1.258       .  A
C468        O474   1.263       .  A
C468       C1444   1.467       .  S
C475        C476   1.534       .  S
C475        C481   1.528       .  S
C475        C479   1.534       .  S
C475        C666   1.513       .  S
C476        H483   1.086       .  S
C476        C477   1.367       .  D
C477        C656   1.478       .  S
C477        C478   1.545       .  S
C478        C706   1.543       .  S
C478        C480   1.551       .  S
C478        H708   1.109       .  S
C479        H485   1.085       .  S
C479        C480   1.373       .  D
C480        C646   1.499       .  S
C481        H486   1.087       .  S
C481        C706   1.364       .  D
C482        C702   1.548       .  S
C482        C705   1.363       .  D
C482        C670   1.486   1_556  S
H484        C702   1.110   1_554  S
In487       O489   2.215       .  S
In487       O490   2.281       .  S
In487       O498   2.241       .  S
In487       O492   2.273       .  S
In487       O494   2.261       .  S
In487       O495   2.240       .  S
In487       O496   2.247       .  S
In487       O499   2.259       .  S
C488        O494   1.262       .  A
C488        O496   1.260       .  A
C488        C501   1.470       .  S
O489        C497   1.256       .  A
O490        C497   1.262       .  A
C491        O498   1.254       .  A
C491        O492   1.260       .  A
C491        C641   1.471       .  S
C493        O495   1.260       .  A
C493        O499   1.263       .  A
C493       C1469   1.466       .  S
In500       O502   2.255       .  S
In500       O503   2.237       .  S
In500       O511   2.314       .  S
In500       O505   2.224       .  S
In500       O507   2.267       .  S
In500       O508   2.223       .  S
In500       O509   2.253       .  S
In500       O512   2.289       .  S
C501        O507   1.260       .  A
C501        O509   1.258       .  A
O502        C510   1.264       .  A
O503        C510   1.262       .  A
C504        O511   1.262       .  A
C504        O505   1.251       .  A
C504        C637   1.477       .  S
C506        O508   1.255       .  A
C506        O512   1.263       .  A
C510       C1478   1.464       .  S
C513        C514   1.528       .  S
C513        C743   1.529   1_554  S
C513        C517   1.531       .  S
C513        C642   1.513       .  S
C514        H521   1.086       .  S
C514        C739   1.367   1_554  D
C515        C659   1.489       .  S
C515        C516   1.547       .  S
C515        C738   1.372       .  D
C516        C520   1.543       .  S
C516        C518   1.548       .  S
C516        H522   1.109       .  S
C517        H523   1.085       .  S
C517        C742   1.371   1_554  D
C518        C628   1.491       .  S
C518        C741   1.369       .  D
C519        C737   1.531       .  S
C519        H524   1.087       .  S
C519        C520   1.365       .  D
C520        C638   1.494       .  S
In525       O527   2.293       .  S
In525       O528   2.215       .  S
In525       O536   2.290       .  S
In525       O530   2.246       .  S
In525       O532   2.243       .  S
In525       O533   2.248       .  S
In525       O534   2.267       .  S
In525       O537   2.261       .  S
C526        O532   1.259       .  A
C526        O534   1.262       .  A
C526        C539   1.469       .  S
O527        C535   1.265       .  A
O528        C535   1.257       .  A
C529        O536   1.259       .  A
C529        O530   1.257       .  A
C529        C624   1.487       .  S
C531        O533   1.259       .  A
C531        O537   1.260       .  A
C531       C1355   1.465   1_455  S
In538       O540   2.260       .  S
In538       O541   2.245       .  S
In538       O549   2.250       .  S
In538       O543   2.286       .  S
In538       O545   2.242       .  S
In538       O546   2.229       .  S
In538       O547   2.257       .  S
In538       O550   2.286       .  S
C539        O545   1.262       .  A
C539        O547   1.263       .  A
O540        C548   1.261       .  A
O541        C548   1.258       .  A
C542        O549   1.258       .  A
C542        O543   1.258       .  A
C542        C619   1.485       .  S
C544        O546   1.256       .  A
C544        O550   1.264       .  A
C548       C1364   1.466   1_455  S
C551        C552   1.535       .  S
C551        C557   1.525       .  S
C551        C555   1.533       .  S
C551        C620   1.518       .  S
C552        H559   1.085       .  S
C552        C553   1.376       .  D
C553        C649   1.499       .  S
C553        C554   1.551       .  S
C554        C782   1.536       .  S
C554        C556   1.543       .  S
C554        H784   1.109       .  S
C555        H561   1.086       .  S
C555        C556   1.372       .  D
C556        C610   1.484       .  S
C557        H562   1.086       .  S
C557        C782   1.363       .  D
C558        C778   1.552       .  S
C558        C781   1.364       .  D
C558        C623   1.490   1_556  S
H560        C778   1.109   1_554  S
In563       O565   2.237       .  S
In563       O566   2.247       .  S
In563       O574   2.274       .  S
In563       O568   2.254       .  S
In563       O570   2.243       .  S
In563       O571   2.287       .  S
In563       O572   2.254       .  S
In563       O575   2.226       .  S
C564        O570   1.259       .  A
C564        O572   1.262       .  A
C564        C577   1.466       .  S
O565        C573   1.258       .  A
O566        C573   1.259       .  A
C567        O574   1.260       .  A
C567        O568   1.257       .  A
C567        C605   1.482       .  S
C569        O571   1.264       .  A
C569        O575   1.256       .  A
C573       C1389   1.457   1_455  S
In576       O578   2.278       .  S
In576       O579   2.222       .  S
In576       O587   2.250       .  S
In576       O581   2.266       .  S
In576       O583   2.246       .  S
In576       O584   2.258       .  S
In576       O585   2.251       .  S
In576       O588   2.271       .  S
C577        O583   1.263       .  A
C577        O585   1.262       .  A
O578        C586   1.262       .  A
O579        C586   1.257       .  A
C580        O587   1.258       .  A
C580        O581   1.256       .  A
C580        C601   1.475       .  S
C582        O584   1.258       .  A
C582        O588   1.260       .  A
C582       C1406   1.472   1_455  S
C589        C590   1.529       .  S
C589        C595   1.529       .  S
C589        C593   1.535       .  S
C589        C602   1.511       .  S
C590        H597   1.086       .  S
C590        C591   1.366       .  D
C591        C613   1.483       .  S
C591        C592   1.544       .  S
C592        C820   1.544       .  S
C592        C594   1.548       .  S
C592        H822   1.110       .  S
C593        H599   1.086       .  S
C593        C594   1.373       .  D
C594        C631   1.492       .  S
C595        H600   1.087       .  S
C595        C820   1.361       .  D
C596        C816   1.545       .  S
C596        C819   1.359   1_554  D
C596        C606   1.478       .  S
H598        C816   1.108       .  S
C601        H603   1.087       .  S
C601        C602   1.344       .  D
C602        H604   1.087       .  S
C605        H607   1.087       .  S
C605        C606   1.345       .  D
C606        H608   1.087       .  S
C609        C610   1.403       .  A
C609        C614   1.396       .  A
C609        H615   1.083       .  S
C610        C611   1.405       .  A
C611        C612   1.401       .  A
C611        H616   1.078       .  S
C612        C613   1.404       .  A
C612        H617   1.083       .  S
C613        C614   1.405       .  A
C614        H618   1.083       .  S
C619        H621   1.086       .  S
C619        C620   1.344       .  D
C620        H622   1.088       .  S
C623        H625   1.088       .  S
C623        C624   1.345       .  D
C624        H626   1.085       .  S
C627        C628   1.403       .  A
C627        C632   1.399       .  A
C627        H633   1.082       .  S
C628        C629   1.409       .  A
C629        C630   1.401       .  A
C629        H858   1.082       .  S
C630        C631   1.404       .  A
C630        H859   1.083       .  S
C631        C632   1.407       .  A
C632        H636   1.082       .  S
H634        C853   1.082       .  S
H635        C854   1.082       .  S
C637        H639   1.087       .  S
C637        C638   1.347       .  D
C638        H640   1.085       .  S
C641        H643   1.087       .  S
C641        C642   1.343       .  D
C642        H644   1.087       .  S
C645        C646   1.406       .  A
C645        C650   1.401       .  A
C645        H651   1.081       .  S
C646        C647   1.409       .  A
C647        C648   1.400       .  A
C647        H652   1.081       .  S
C648        C649   1.407       .  A
C648        H653   1.082       .  S
C649        C650   1.406       .  A
C650        H654   1.076       .  S
C655        C656   1.402       .  A
C655        C660   1.401       .  A
C655        H661   1.083       .  S
C656        C657   1.402       .  A
C657        C658   1.400       .  A
C657        H662   1.083       .  S
C658        C659   1.407       .  A
C658        H663   1.083       .  S
C659        C660   1.406       .  A
C660        H664   1.083       .  S
C665        H667   1.086       .  S
C665        C666   1.344       .  D
C666        H668   1.087       .  S
C669        H671   1.087       .  S
C669        C670   1.345       .  D
C670        H672   1.085       .  S
In673       O675   2.249       .  S
In673       O676   2.240       .  S
In673       O684   2.232       .  S
In673       O678   2.296       .  S
In673       O680   2.246       .  S
In673       O681   2.232       .  S
In673       O682   2.252       .  S
In673       O685   2.283       .  S
C674        O680   1.260       .  A
C674        O682   1.260       .  A
C674        C687   1.466       .  S
O675        C683   1.261       .  A
O676        C683   1.262       .  A
C677        O684   1.254       .  A
C677        O678   1.261       .  A
C677        C893   1.475       .  S
C679        O681   1.255       .  A
C679        O685   1.263       .  A
C683       C1651   1.463       .  S
In686       O688   2.279       .  S
In686       O689   2.233       .  S
In686       O697   2.239       .  S
In686       O691   2.275       .  S
In686       O693   2.246       .  S
In686       O694   2.240       .  S
In686       O695   2.253       .  S
In686       O698   2.256       .  S
C687        O693   1.261       .  A
C687        O695   1.261       .  A
O688        C696   1.264       .  A
O689        C696   1.258       .  A
C690        O697   1.255       .  A
C690        O691   1.258       .  A
C690        C889   1.476       .  S
C692        O694   1.259       .  A
C692        O698   1.261       .  A
C692       C1668   1.462       .  S
C699        C700   1.532       .  S
C699        C705   1.529       .  S
C699        C703   1.532       .  S
C699        C890   1.511       .  S
C700        H707   1.086       .  S
C700        C701   1.368       .  D
C701        C880   1.480       .  S
C701        C702   1.550       .  S
C702        C704   1.544       .  S
C703        H709   1.085       .  S
C703        C704   1.368       .  D
C704        C870   1.489       .  S
C705        H710   1.087       .  S
C706        C894   1.490       .  S
In711       O713   2.289       .  S
In711       O714   2.219       .  S
In711       O722   2.247       .  S
In711       O716   2.281       .  S
In711       O718   2.265       .  S
In711       O719   2.244       .  S
In711       O720   2.241       .  S
In711       O723   2.263       .  S
C712        O718   1.263       .  A
C712        O720   1.262       .  A
C712        C725   1.471       .  S
O713        C721   1.264       .  A
O714        C721   1.256       .  A
C715        O722   1.256       .  A
C715        O716   1.259       .  A
C715        C865   1.481       .  S
C717        O719   1.257       .  A
C717        O723   1.262       .  A
C717       C1693   1.466       .  S
In724       O726   2.275       .  S
In724       O727   2.244       .  S
In724       O735   2.286       .  S
In724       O729   2.290       .  S
In724       O731   2.267       .  S
In724       O732   2.244       .  S
In724       O733   2.241       .  S
In724       O736   2.261       .  S
C725        O731   1.264       .  A
C725        O733   1.260       .  A
O726        C734   1.263       .  A
O727        C734   1.255       .  A
C728        O735   1.258       .  A
C728        O729   1.260       .  A
C728        C861   1.496       .  S
C730        O732   1.260       .  A
C730        O736   1.263       .  A
C734       C1702   1.466       .  S
C737        C738   1.535       .  S
C737        C741   1.533       .  S
C737        C866   1.516       .  S
C738        H745   1.086       .  S
C739        C883   1.493       .  S
C739        C740   1.552       .  S
C740        C744   1.557       .  S
C740        C742   1.557       .  S
C740        H746   1.109       .  S
C741        H747   1.086       .  S
C742        C852   1.496       .  S
C743        H748   1.087       .  S
C743        C744   1.362       .  D
C744        C862   1.495       .  S
In749       O751   2.245       .  S
In749       O752   2.235       .  S
In749       O760   2.210       .  S
In749       O754   2.283       .  S
In749       O756   2.240       .  S
In749       O757   2.250       .  S
In749       O758   2.251       .  S
In749       O761   2.263       .  S
C750        O756   1.258       .  A
C750        O758   1.259       .  A
C750        C763   1.460       .  S
O751        C759   1.262       .  A
O752        C759   1.261       .  A
C753        O760   1.250       .  A
C753        O754   1.259       .  A
C753        C848   1.461       .  S
C755        O757   1.257       .  A
C755        O761   1.259       .  A
C755       C1579   1.465   1_455  S
In762       O764   2.240       .  S
In762       O765   2.239       .  S
In762       O773   2.279       .  S
In762       O767   2.236       .  S
In762       O769   2.236       .  S
In762       O770   2.269       .  S
In762       O771   2.247       .  S
In762       O774   2.235       .  S
C763        O769   1.259       .  A
C763        O771   1.261       .  A
O764        C772   1.259       .  A
O765        C772   1.260       .  A
C766        O773   1.261       .  A
C766        O767   1.254       .  A
C766        C843   1.473       .  S
C768        O770   1.263       .  A
C768        O774   1.256       .  A
C772       C1588   1.457   1_455  S
C775        C776   1.527       .  S
C775        C781   1.528       .  S
C775        C779   1.531       .  S
C775        C844   1.517       .  S
C776        H783   1.086       .  S
C776        C777   1.370       .  D
C777        C873   1.488       .  S
C777        C778   1.552       .  S
C778        C780   1.551       .  S
C779        H785   1.086       .  S
C779        C780   1.370       .  D
C780        C834   1.493       .  S
C781        H786   1.087       .  S
C782        C847   1.482       .  S
In787       O789   2.250       .  S
In787       O790   2.250       .  S
In787       O798   2.259       .  S
In787       O792   2.269       .  S
In787       O794   2.250       .  S
In787       O795   2.261       .  S
In787       O796   2.254       .  S
In787       O799   2.225       .  S
C788        O794   1.259       .  A
C788        O796   1.259       .  A
C788        C801   1.465       .  S
O789        C797   1.259       .  A
O790        C797   1.258       .  A
C791        O798   1.256       .  A
C791        O792   1.259       .  A
C791        C829   1.479       .  S
C793        O795   1.263       .  A
C793        O799   1.258       .  A
C797       C1613   1.462   1_455  S
In800       O802   2.263       .  S
In800       O803   2.244       .  S
In800       O811   2.259       .  S
In800       O805   2.256       .  S
In800       O807   2.243       .  S
In800       O808   2.231       .  S
In800       O809   2.249       .  S
In800       O812   2.280       .  S
C801        O807   1.262       .  A
C801        O809   1.263       .  A
O802        C810   1.260       .  A
O803        C810   1.257       .  A
C804        O811   1.256       .  A
C804        O805   1.258       .  A
C804        C825   1.475       .  S
C806        O808   1.257       .  A
C806        O812   1.263       .  A
C806       C1630   1.468   1_455  S
C813        C814   1.532       .  S
C813        C819   1.526       .  S
C813        C817   1.534       .  S
C813        C826   1.512       .  S
C814        H821   1.085       .  S
C814        C815   1.372       .  D
C815        C837   1.496       .  S
C815        C816   1.551   1_556  S
C816        C818   1.547   1_554  S
C817        H823   1.086       .  S
C817        C818   1.371       .  D
C818        C855   1.491       .  S
C819        H824   1.087   1_556  S
C820        C830   1.479       .  S
C825        H827   1.086       .  S
C825        C826   1.343       .  D
C826        H828   1.087       .  S
C829        H831   1.087       .  S
C829        C830   1.342       .  D
C830        H832   1.086       .  S
C833        C834   1.406       .  A
C833        C838   1.397       .  A
C833        H839   1.083       .  S
C834        C835   1.404       .  A
C835        C836   1.404       .  A
C835        H840   1.076       .  S
C836        C837   1.407       .  A
C836        H841   1.082   1_556  S
C837        C838   1.407       .  A
C838        H842   1.082       .  S
C843        H845   1.087       .  S
C843        C844   1.344       .  D
C844        H846   1.087       .  S
C847        H849   1.086       .  S
C847        C848   1.341       .  D
C848        H850   1.087       .  S
C851        C852   1.403       .  A
C851        C856   1.400       .  A
C851        H857   1.082       .  S
C852        C853   1.412   1_556  A
C853        C854   1.401       .  A
C854        C855   1.403   1_554  A
C855        C856   1.408       .  A
C856        H860   1.082       .  S
C861        H863   1.086       .  S
C861        C862   1.347       .  D
C862        H864   1.087       .  S
C865        H867   1.086       .  S
C865        C866   1.346       .  D
C866        H868   1.087       .  S
C869        C870   1.405       .  A
C869        C874   1.402       .  A
C869        H875   1.082       .  S
C870        C871   1.406       .  A
C871        C872   1.395       .  A
C871        H876   1.082       .  S
C872        C873   1.404       .  A
C872        H877   1.083       .  S
C873        C874   1.404       .  A
C874        H878   1.076       .  S
C879        C880   1.404       .  A
C879        C884   1.404       .  A
C879        H885   1.083       .  S
C880        C881   1.400       .  A
C881        C882   1.399       .  A
C881        H886   1.083       .  S
C882        C883   1.409       .  A
C882        H887   1.083       .  S
C883        C884   1.407       .  A
C884        H888   1.083       .  S
C889        H891   1.086       .  S
C889        C890   1.345       .  D
C890        H892   1.087       .  S
C893        H895   1.087       .  S
C893        C894   1.346       .  D
C894        H896   1.085       .  S
In897       O899   2.248       .  S
In897       O900   2.243       .  S
In897       O908   2.247       .  S
In897       O902   2.304       .  S
In897       O904   2.254       .  S
In897       O905   2.286       .  S
In897       O906   2.247       .  S
In897       O909   2.227       .  S
C898        O904   1.261       .  A
C898        O906   1.258       .  A
C898        C911   1.465       .  S
O899        C907   1.264       .  A
O900        C907   1.262       .  A
C901        O908   1.256       .  A
C901        O902   1.261       .  A
C901       C1117   1.483       .  S
C903        O905   1.263       .  A
C903        O909   1.255       .  A
C903       C1393   1.467       .  S
In910       O912   2.283       .  S
In910       O913   2.237       .  S
In910       O921   2.247       .  S
In910       O915   2.274       .  S
In910       O917   2.244       .  S
In910       O918   2.250       .  S
In910       O919   2.250       .  S
In910       O922   2.259       .  S
C911        O917   1.261       .  A
C911        O919   1.263       .  A
O912        C920   1.263       .  A
O913        C920   1.257       .  A
C914        O921   1.257       .  A
C914        O915   1.256       .  A
C914       C1113   1.477       .  S
C916        O918   1.259       .  A
C916        O922   1.260       .  A
C920       C1402   1.471       .  S
C923        C924   1.535       .  S
C923        C929   1.523       .  S
C923        C927   1.529       .  S
C923       C1114   1.512       .  S
C924        H931   1.085       .  S
C924        C925   1.373       .  D
C925       C1104   1.494       .  S
C925        C926   1.551       .  S
C926       C1154   1.548       .  S
C926        C928   1.548       .  S
C926       H1156   1.110       .  S
C927        H933   1.086       .  S
C927        C928   1.368       .  D
C928       C1094   1.487       .  S
C929        H934   1.087       .  S
C929       C1154   1.363       .  D
C930       C1150   1.552       .  S
C930       C1153   1.364   1_554  D
C930       C1118   1.497       .  S
H932       C1150   1.108       .  S
In935       O937   2.228       .  S
In935       O938   2.278       .  S
In935       O946   2.238       .  S
In935       O940   2.280       .  S
In935       O942   2.260       .  S
In935       O943   2.251       .  S
In935       O944   2.265       .  S
In935       O947   2.250       .  S
C936        O942   1.257       .  A
C936        O944   1.258       .  A
C936        C949   1.468       .  S
O937        C945   1.257       .  A
O938        C945   1.262       .  A
C939        O946   1.253       .  A
C939        O940   1.259       .  A
C939       C1089   1.471       .  S
C941        O943   1.263       .  A
C941        O947   1.263       .  A
C945       C1351   1.464   1_545  S
In948       O950   2.259       .  S
In948       O951   2.223       .  S
In948       O959   2.312       .  S
In948       O953   2.217       .  S
In948       O955   2.251       .  S
In948       O956   2.299       .  S
In948       O957   2.251       .  S
In948       O960   2.214       .  S
C949        O955   1.260       .  A
C949        O957   1.260       .  A
O950        C958   1.264       .  A
O951        C958   1.260       .  A
C952        O959   1.263       .  A
C952        O953   1.252       .  A
C952       C1085   1.475       .  S
C954        O956   1.266       .  A
C954        O960   1.254       .  A
C954       C1368   1.469   1_545  S
C961        C962   1.529       .  S
C961       C1191   1.522   1_554  S
C961        C965   1.531       .  S
C961       C1090   1.515       .  S
C962        H969   1.085       .  S
C962       C1187   1.371   1_554  D
C963       C1107   1.494       .  S
C963        C964   1.550       .  S
C963       C1186   1.370       .  D
C964        C968   1.545       .  S
C964        C966   1.548       .  S
C964        H970   1.109       .  S
C965        H971   1.086       .  S
C965       C1190   1.372   1_554  D
C966       C1076   1.485       .  S
C966       C1189   1.369       .  D
C967       C1185   1.526       .  S
C967        H972   1.086       .  S
C967        C968   1.365       .  D
C968       C1086   1.494       .  S
In973       O975   2.225       .  S
In973       O976   2.274       .  S
In973       O984   2.264       .  S
In973       O978   2.225       .  S
In973       O980   2.239       .  S
In973       O981   2.258       .  S
In973       O982   2.250       .  S
In973       O985   2.241       .  S
C974        O980   1.257       .  A
C974        O982   1.260       .  A
C974        C987   1.459       .  S
O975        C983   1.259       .  A
O976        C983   1.262       .  A
C977        O984   1.257       .  A
C977        O978   1.257       .  A
C977       C1072   1.470       .  S
C979        O981   1.261       .  A
C979        O985   1.258       .  A
C983       C1465   1.464       .  S
In986       O988   2.279       .  S
In986       O989   2.249       .  S
In986       O997   2.246       .  S
In986       O991   2.275       .  S
In986       O993   2.236       .  S
In986       O994   2.229       .  S
In986       O995   2.243       .  S
In986       O998   2.283       .  S
C987        O993   1.262       .  A
C987        O995   1.261       .  A
O988        C996   1.262       .  A
O989        C996   1.259       .  A
C990        O997   1.258       .  A
C990        O991   1.258       .  A
C990       C1067   1.479       .  S
C992        O994   1.256       .  A
C992        O998   1.263       .  A
C992       C1482   1.467       .  S
C999       C1000   1.534       .  S
C999       C1005   1.529       .  S
C999       C1003   1.532       .  S
C999       C1068   1.513       .  S
C1000      H1007   1.086       .  S
C1000      C1001   1.373       .  D
C1001      C1097   1.490       .  S
C1001      C1002   1.545       .  S
C1002      C1230   1.533       .  S
C1002      C1004   1.546       .  S
C1002      H1232   1.108       .  S
C1003      H1009   1.085       .  S
C1003      C1004   1.373       .  D
C1004      C1058   1.491       .  S
C1005      H1010   1.087       .  S
C1005      C1230   1.358       .  D
C1006      C1226   1.532   1_554  S
C1006      C1229   1.357   1_554  D
C1006      C1071   1.464       .  S
H1008      C1226   1.109   1_554  S
In1011     O1013   2.220       .  S
In1011     O1014   2.285       .  S
In1011     O1022   2.239       .  S
In1011     O1016   2.290       .  S
In1011     O1018   2.257       .  S
In1011     O1019   2.234       .  S
In1011     O1020   2.251       .  S
In1011     O1023   2.254       .  S
C1012      O1018   1.260       .  A
C1012      O1020   1.259       .  A
C1012      C1025   1.467       .  S
O1013      C1021   1.256       .  A
O1014      C1021   1.263       .  A
C1015      O1022   1.257       .  A
C1015      O1016   1.261       .  A
C1015      C1053   1.486       .  S
C1017      O1019   1.261       .  A
C1017      O1023   1.262       .  A
C1017      C1431   1.462   1_545  S
In1024     O1026   2.270       .  S
In1024     O1027   2.243       .  S
In1024     O1035   2.245       .  S
In1024     O1029   2.270       .  S
In1024     O1031   2.256       .  S
In1024     O1032   2.224       .  S
In1024     O1033   2.247       .  S
In1024     O1036   2.285       .  S
C1025      O1031   1.261       .  A
C1025      O1033   1.261       .  A
O1026      C1034   1.260       .  A
O1027      C1034   1.257       .  A
C1028      O1035   1.256       .  A
C1028      O1029   1.257       .  A
C1028      C1049   1.475       .  S
C1030      O1032   1.258       .  A
C1030      O1036   1.265       .  A
C1034      C1440   1.466   1_545  S
C1037      C1038   1.532       .  S
C1037      C1043   1.529       .  S
C1037      C1041   1.533       .  S
C1037      C1050   1.509       .  S
C1038      H1045   1.085       .  S
C1038      C1039   1.371       .  D
C1039      C1061   1.490       .  S
C1039      C1040   1.546       .  S
C1040      C1268   1.539       .  S
C1040      C1042   1.543       .  S
C1040      H1270   1.109       .  S
C1041      H1047   1.086       .  S
C1041      C1042   1.366       .  D
C1042      C1079   1.476       .  S
C1043      H1048   1.087       .  S
C1043      C1268   1.360       .  D
C1044      C1264   1.548       .  S
C1044      C1267   1.359       .  D
C1044      C1054   1.483   1_556  S
H1046      C1264   1.108   1_554  S
C1049      H1051   1.087       .  S
C1049      C1050   1.344       .  D
C1050      H1052   1.087       .  S
C1053      H1055   1.086       .  S
C1053      C1054   1.345       .  D
C1054      H1056   1.087       .  S
C1057      C1058   1.406       .  A
C1057      C1062   1.393       .  A
C1057      H1063   1.081       .  S
C1058      C1059   1.405       .  A
C1059      C1060   1.397       .  A
C1059      H1064   1.079       .  S
C1060      C1061   1.405       .  A
C1060      H1065   1.080       .  S
C1061      C1062   1.406       .  A
C1062      H1066   1.082       .  S
C1067      H1069   1.086       .  S
C1067      C1068   1.343       .  D
C1068      H1070   1.087       .  S
C1071      H1073   1.087       .  S
C1071      C1072   1.338       .  D
C1072      H1074   1.087       .  S
C1075      C1076   1.407       .  A
C1075      C1080   1.400       .  A
C1075      H1081   1.083       .  S
C1076      C1077   1.405       .  A
C1077      C1078   1.399       .  A
C1077      H1306   1.083       .  S
C1078      C1079   1.402       .  A
C1078      H1307   1.082       .  S
C1079      C1080   1.402       .  A
C1080      H1084   1.083       .  S
H1082      C1301   1.082       .  S
H1083      C1302   1.081       .  S
C1085      H1087   1.087       .  S
C1085      C1086   1.347       .  D
C1086      H1088   1.085       .  S
C1089      H1091   1.087       .  S
C1089      C1090   1.344       .  D
C1090      H1092   1.087       .  S
C1093      C1094   1.404       .  A
C1093      C1098   1.402       .  A
C1093      H1099   1.083       .  S
C1094      C1095   1.405       .  A
C1095      C1096   1.397       .  A
C1095      H1100   1.083       .  S
C1096      C1097   1.404       .  A
C1096      H1101   1.083       .  S
C1097      C1098   1.406       .  A
C1098      H1102   1.080       .  S
C1103      C1104   1.408       .  A
C1103      C1108   1.401       .  A
C1103      H1109   1.082       .  S
C1104      C1105   1.404       .  A
C1105      C1106   1.401       .  A
C1105      H1110   1.082       .  S
C1106      C1107   1.409       .  A
C1106      H1111   1.082       .  S
C1107      C1108   1.404       .  A
C1108      H1112   1.082       .  S
C1113      H1115   1.086       .  S
C1113      C1114   1.342       .  D
C1114      H1116   1.088       .  S
C1117      H1119   1.087       .  S
C1117      C1118   1.351       .  D
C1118      H1120   1.085       .  S
In1121     O1123   2.237       .  S
In1121     O1124   2.251       .  S
In1121     O1132   2.294       .  S
In1121     O1126   2.231       .  S
In1121     O1128   2.253       .  S
In1121     O1129   2.294       .  S
In1121     O1130   2.248       .  S
In1121     O1133   2.219       .  S
C1122      O1128   1.260       .  A
C1122      O1130   1.261       .  A
C1122      C1135   1.467       .  S
O1123      C1131   1.261       .  A
O1124      C1131   1.261       .  A
C1125      O1132   1.261       .  A
C1125      O1126   1.255       .  A
C1125      C1341   1.475       .  S
C1127      O1129   1.264       .  A
C1127      O1133   1.255       .  A
C1127      C1617   1.467       .  S
In1134     O1136   2.278       .  S
In1134     O1137   2.237       .  S
In1134     O1145   2.236       .  S
In1134     O1139   2.270       .  S
In1134     O1141   2.257       .  S
In1134     O1142   2.221       .  S
In1134     O1143   2.245       .  S
In1134     O1146   2.292       .  S
C1135      O1141   1.262       .  A
C1135      O1143   1.260       .  A
O1136      C1144   1.262       .  A
O1137      C1144   1.257       .  A
C1138      O1145   1.256       .  A
C1138      O1139   1.258       .  A
C1138      C1337   1.473       .  S
C1140      O1142   1.257       .  A
C1140      O1146   1.263       .  A
C1144      C1626   1.469       .  S
C1147      C1148   1.535       .  S
C1147      C1153   1.527       .  S
C1147      C1151   1.527       .  S
C1147      C1338   1.508       .  S
C1148      H1155   1.085       .  S
C1148      C1149   1.373       .  D
C1149      C1328   1.498       .  S
C1149      C1150   1.555   1_556  S
C1150      C1152   1.551   1_554  S
C1151      H1157   1.086       .  S
C1151      C1152   1.366       .  D
C1152      C1318   1.491       .  S
C1153      H1158   1.087       .  S
C1154      C1342   1.492       .  S
In1159     O1161   2.275       .  S
In1159     O1162   2.232       .  S
In1159     O1170   2.236       .  S
In1159     O1164   2.275       .  S
In1159     O1166   2.258       .  S
In1159     O1167   2.242       .  S
In1159     O1168   2.252       .  S
In1159     O1171   2.276       .  S
C1160      O1166   1.261       .  A
C1160      O1168   1.260       .  A
C1160      C1173   1.467       .  S
O1161      C1169   1.263       .  A
O1162      C1169   1.259       .  A
C1163      O1170   1.255       .  A
C1163      O1164   1.257       .  A
C1163      C1313   1.476       .  S
C1165      O1167   1.257       .  A
C1165      O1171   1.261       .  A
C1169      C1575   1.468   1_545  S
In1172     O1174   2.246       .  S
In1172     O1175   2.254       .  S
In1172     O1183   2.256       .  S
In1172     O1177   2.293       .  S
In1172     O1179   2.250       .  S
In1172     O1180   2.216       .  S
In1172     O1181   2.245       .  S
In1172     O1184   2.309       .  S
C1173      O1179   1.261       .  A
C1173      O1181   1.261       .  A
O1174      C1182   1.262       .  A
O1175      C1182   1.262       .  A
C1176      O1183   1.259       .  A
C1176      O1177   1.259       .  A
C1176      C1309   1.492       .  S
C1178      O1180   1.253       .  A
C1178      O1184   1.265       .  A
C1178      C1592   1.471   1_545  S
C1185      C1186   1.533       .  S
C1185      C1189   1.531       .  S
C1185      C1314   1.510       .  S
C1186      H1193   1.086       .  S
C1187      C1331   1.499       .  S
C1187      C1188   1.557       .  S
C1188      C1192   1.557       .  S
C1188      C1190   1.553       .  S
C1188      H1194   1.109       .  S
C1189      H1195   1.086       .  S
C1190      C1300   1.495       .  S
C1191      H1196   1.087       .  S
C1191      C1192   1.359       .  D
C1192      C1310   1.490       .  S
In1197     O1199   2.232       .  S
In1197     O1200   2.271       .  S
In1197     O1208   2.252       .  S
In1197     O1202   2.247       .  S
In1197     O1204   2.245       .  S
In1197     O1205   2.256       .  S
In1197     O1206   2.243       .  S
In1197     O1209   2.237       .  S
C1198      O1204   1.259       .  A
C1198      O1206   1.261       .  A
C1198      C1211   1.461       .  S
O1199      C1207   1.259       .  A
O1200      C1207   1.262       .  A
C1201      O1208   1.256       .  A
C1201      O1202   1.258       .  A
C1201      C1296   1.469       .  S
C1203      O1205   1.259       .  A
C1203      O1209   1.257       .  A
C1207      C1689   1.466       .  S
In1210     O1212   2.225       .  S
In1210     O1213   2.288       .  S
In1210     O1221   2.257       .  S
In1210     O1215   2.277       .  S
In1210     O1217   2.245       .  S
In1210     O1218   2.245       .  S
In1210     O1219   2.236       .  S
In1210     O1222   2.256       .  S
C1211      O1217   1.263       .  A
C1211      O1219   1.261       .  A
O1212      C1220   1.255       .  A
O1213      C1220   1.264       .  A
C1214      O1221   1.259       .  A
C1214      O1215   1.258       .  A
C1214      C1291   1.484       .  S
C1216      O1218   1.259       .  A
C1216      O1222   1.261       .  A
C1216      C1706   1.465       .  S
C1223      C1224   1.537       .  S
C1223      C1229   1.529       .  S
C1223      C1227   1.535       .  S
C1223      C1292   1.519       .  S
C1224      H1231   1.086       .  S
C1224      C1225   1.375       .  D
C1225      C1321   1.494       .  S
C1225      C1226   1.545       .  S
C1226      C1228   1.544       .  S
C1227      H1233   1.086       .  S
C1227      C1228   1.374       .  D
C1228      C1282   1.488       .  S
C1229      H1234   1.087       .  S
C1230      C1295   1.467       .  S
In1235     O1237   2.251       .  S
In1235     O1238   2.255       .  S
In1235     O1246   2.261       .  S
In1235     O1240   2.259       .  S
In1235     O1242   2.287       .  S
In1235     O1243   2.233       .  S
In1235     O1244   2.206       .  S
In1235     O1247   2.238       .  S
C1236      O1242   1.265       .  A
C1236      O1244   1.254       .  A
C1236      C1249   1.462       .  S
O1237      C1245   1.262       .  A
O1238      C1245   1.262       .  A
C1239      O1246   1.255       .  A
C1239      O1240   1.260       .  A
C1239      C1277   1.477       .  S
C1241      O1243   1.262       .  A
C1241      O1247   1.261       .  A
C1241      C1655   1.457   1_545  S
In1248     O1250   2.261       .  S
In1248     O1251   2.246       .  S
In1248     O1259   2.235       .  S
In1248     O1253   2.251       .  S
In1248     O1255   2.276       .  S
In1248     O1256   2.249       .  S
In1248     O1257   2.209       .  S
In1248     O1260   2.254       .  S
C1249      O1255   1.264       .  A
C1249      O1257   1.258       .  A
O1250      C1258   1.258       .  A
O1251      C1258   1.259       .  A
C1252      O1259   1.254       .  A
C1252      O1253   1.258       .  A
C1252      C1273   1.463       .  S
C1254      O1256   1.262       .  A
C1254      O1260   1.262       .  A
C1258      C1664   1.464   1_545  S
C1261      C1262   1.526       .  S
C1261      C1267   1.527       .  S
C1261      C1265   1.531       .  S
C1261      C1274   1.505       .  S
C1262      H1269   1.086       .  S
C1262      C1263   1.365       .  D
C1263      C1285   1.483       .  S
C1263      C1264   1.547       .  S
C1264      C1266   1.559       .  S
C1265      H1271   1.084       .  S
C1265      C1266   1.372       .  D
C1266      C1303   1.501       .  S
C1267      H1272   1.087       .  S
C1268      C1278   1.474       .  S
C1273      H1275   1.087       .  S
C1273      C1274   1.341       .  D
C1274      H1276   1.087       .  S
C1277      H1279   1.088       .  S
C1277      C1278   1.340       .  D
C1278      H1280   1.087       .  S
C1281      C1282   1.406       .  A
C1281      C1286   1.395       .  A
C1281      H1287   1.082       .  S
C1282      C1283   1.403       .  A
C1283      C1284   1.397       .  A
C1283      H1288   1.089       .  S
C1284      C1285   1.403       .  A
C1284      H1289   1.081       .  S
C1285      C1286   1.405       .  A
C1286      H1290   1.085       .  S
C1291      H1293   1.086       .  S
C1291      C1292   1.344       .  D
C1292      H1294   1.087       .  S
C1295      H1297   1.086       .  S
C1295      C1296   1.338       .  D
C1296      H1298   1.087       .  S
C1299      C1300   1.403       .  A
C1299      C1304   1.404       .  A
C1299      H1305   1.083       .  S
C1300      C1301   1.408   1_556  A
C1301      C1302   1.399       .  A
C1302      C1303   1.404   1_554  A
C1303      C1304   1.414       .  A
C1304      H1308   1.081       .  S
C1309      H1311   1.085       .  S
C1309      C1310   1.344       .  D
C1310      H1312   1.088       .  S
C1313      H1315   1.086       .  S
C1313      C1314   1.343       .  D
C1314      H1316   1.087       .  S
C1317      C1318   1.405       .  A
C1317      C1322   1.401       .  A
C1317      H1323   1.081   1_556  S
C1318      C1319   1.406       .  A
C1319      C1320   1.398       .  A
C1319      H1324   1.085       .  S
C1320      C1321   1.406       .  A
C1320      H1325   1.082       .  S
C1321      C1322   1.405       .  A
C1322      H1326   1.090       .  S
C1327      C1328   1.412       .  A
C1327      C1332   1.405       .  A
C1327      H1333   1.082       .  S
C1328      C1329   1.403   1_556  A
C1329      C1330   1.398       .  A
C1329      H1334   1.081       .  S
C1330      C1331   1.410   1_554  A
C1330      H1335   1.082       .  S
C1331      C1332   1.404       .  A
C1332      H1336   1.082       .  S
C1337      H1339   1.086       .  S
C1337      C1338   1.344       .  D
C1338      H1340   1.087       .  S
C1341      H1343   1.087       .  S
C1341      C1342   1.349       .  D
C1342      H1344   1.085       .  S
In1345     O1347   2.266       .  S
In1345     O1348   2.246       .  S
In1345     O1356   2.322       .  S
In1345     O1350   2.225       .  S
In1345     O1352   2.268       .  S
In1345     O1353   2.271       .  S
In1345     O1354   2.255       .  S
In1345     O1357   2.218       .  S
C1346      O1352   1.260       .  A
C1346      O1354   1.259       .  A
C1346      C1359   1.472       .  S
O1347      C1355   1.260       .  A
O1348      C1355   1.257       .  A
C1349      O1356   1.262       .  A
C1349      O1350   1.252       .  A
C1349      C1565   1.480       .  S
C1351      O1353   1.266       .  A
C1351      O1357   1.259       .  A
In1358     O1360   2.222       .  S
In1358     O1361   2.294       .  S
In1358     O1369   2.257       .  S
In1358     O1363   2.256       .  S
In1358     O1365   2.266       .  S
In1358     O1366   2.249       .  S
In1358     O1367   2.258       .  S
In1358     O1370   2.254       .  S
C1359      O1365   1.260       .  A
C1359      O1367   1.260       .  A
O1360      C1368   1.257       .  A
O1361      C1368   1.263       .  A
C1362      O1369   1.257       .  A
C1362      O1363   1.258       .  A
C1362      C1561   1.474       .  S
C1364      O1366   1.261       .  A
C1364      O1370   1.261       .  A
C1371      C1372   1.535       .  S
C1371      C1377   1.529       .  S
C1371      C1375   1.537       .  S
C1371      C1562   1.523       .  S
C1372      H1379   1.086       .  S
C1372      C1373   1.368       .  D
C1373      C1552   1.484       .  S
C1373      C1374   1.548       .  S
C1374      C1602   1.551       .  S
C1374      C1376   1.548       .  S
C1374      H1604   1.110       .  S
C1375      H1381   1.080       .  S
C1375      C1376   1.367       .  D
C1376      C1542   1.491       .  S
C1377      H1382   1.085       .  S
C1377      C1602   1.368       .  D
C1378      C1598   1.545       .  S
C1378      C1601   1.367       .  D
C1378      C1566   1.500   1_556  S
H1380      C1598   1.108   1_554  S
In1383     O1385   2.230       .  S
In1383     O1386   2.284       .  S
In1383     O1394   2.233       .  S
In1383     O1388   2.276       .  S
In1383     O1390   2.262       .  S
In1383     O1391   2.239       .  S
In1383     O1392   2.247       .  S
In1383     O1395   2.237       .  S
C1384      O1390   1.261       .  A
C1384      O1392   1.259       .  A
C1384      C1397   1.467       .  S
O1385      C1393   1.257       .  A
O1386      C1393   1.262       .  A
C1387      O1394   1.252       .  A
C1387      O1388   1.261       .  A
C1387      C1537   1.469       .  S
C1389      O1391   1.261       .  A
C1389      O1395   1.261       .  A
In1396     O1398   2.266       .  S
In1396     O1399   2.259       .  S
In1396     O1407   2.245       .  S
In1396     O1401   2.298       .  S
In1396     O1403   2.262       .  S
In1396     O1404   2.239       .  S
In1396     O1405   2.242       .  S
In1396     O1408   2.280       .  S
C1397      O1403   1.261       .  A
C1397      O1405   1.260       .  A
O1398      C1406   1.259       .  A
O1399      C1406   1.260       .  A
C1400      O1407   1.256       .  A
C1400      O1401   1.260       .  A
C1400      C1533   1.490       .  S
C1402      O1404   1.259       .  A
C1402      O1408   1.263       .  A
C1409      C1410   1.530       .  S
C1409      C1639   1.525   1_554  S
C1409      C1413   1.526       .  S
C1409      C1538   1.512       .  S
C1410      H1417   1.085       .  S
C1410      C1635   1.372   1_554  D
C1411      C1555   1.489       .  S
C1411      C1412   1.549       .  S
C1411      C1634   1.368       .  D
C1412      C1416   1.553       .  S
C1412      C1414   1.554       .  S
C1412      H1418   1.109       .  S
C1413      H1419   1.086       .  S
C1413      C1638   1.368   1_554  D
C1414      C1524   1.490       .  S
C1414      C1637   1.368       .  D
C1415      C1633   1.526       .  S
C1415      H1420   1.087       .  S
C1415      C1416   1.362       .  D
C1416      C1534   1.489       .  S
In1421     O1423   2.257       .  S
In1421     O1424   2.235       .  S
In1421     O1432   2.235       .  S
In1421     O1426   2.285       .  S
In1421     O1428   2.257       .  S
In1421     O1429   2.268       .  S
In1421     O1430   2.250       .  S
In1421     O1433   2.234       .  S
C1422      O1428   1.260       .  A
C1422      O1430   1.259       .  A
C1422      C1435   1.466       .  S
O1423      C1431   1.262       .  A
O1424      C1431   1.259       .  A
C1425      O1432   1.254       .  A
C1425      O1426   1.261       .  A
C1425      C1520   1.475       .  S
C1427      O1429   1.262       .  A
C1427      O1433   1.258       .  A
In1434     O1436   2.282       .  S
In1434     O1437   2.233       .  S
In1434     O1445   2.249       .  S
In1434     O1439   2.277       .  S
In1434     O1441   2.251       .  S
In1434     O1442   2.239       .  S
In1434     O1443   2.242       .  S
In1434     O1446   2.263       .  S
C1435      O1441   1.262       .  A
C1435      O1443   1.261       .  A
O1436      C1444   1.262       .  A
O1437      C1444   1.256       .  A
C1438      O1445   1.257       .  A
C1438      O1439   1.259       .  A
C1438      C1515   1.482       .  S
C1440      O1442   1.260       .  A
C1440      O1446   1.262       .  A
C1447      C1448   1.532       .  S
C1447      C1453   1.533       .  S
C1447      C1451   1.537       .  S
C1447      C1516   1.517       .  S
C1448      H1455   1.084       .  S
C1448      C1449   1.374       .  D
C1449      C1545   1.496       .  S
C1449      C1450   1.548       .  S
C1450      C1678   1.533       .  S
C1450      C1452   1.547       .  S
C1450      H1680   1.106       .  S
C1451      H1457   1.084       .  S
C1451      C1452   1.375       .  D
C1452      C1506   1.499       .  S
C1453      H1458   1.087       .  S
C1453      C1678   1.360       .  D
C1454      C1674   1.543       .  S
C1454      C1677   1.370       .  D
C1454      C1519   1.487   1_556  S
H1456      C1674   1.110   1_554  S
In1459     O1461   2.254       .  S
In1459     O1462   2.241       .  S
In1459     O1470   2.289       .  S
In1459     O1464   2.243       .  S
In1459     O1466   2.252       .  S
In1459     O1467   2.284       .  S
In1459     O1468   2.247       .  S
In1459     O1471   2.222       .  S
C1460      O1466   1.261       .  A
C1460      O1468   1.260       .  A
C1460      C1473   1.466       .  S
O1461      C1469   1.262       .  A
O1462      C1469   1.261       .  A
C1463      O1470   1.260       .  A
C1463      O1464   1.257       .  A
C1463      C1501   1.485       .  S
C1465      O1467   1.264       .  A
C1465      O1471   1.255       .  A
In1472     O1474   2.281       .  S
In1472     O1475   2.231       .  S
In1472     O1483   2.241       .  S
In1472     O1477   2.269       .  S
In1472     O1479   2.250       .  S
In1472     O1480   2.241       .  S
In1472     O1481   2.246       .  S
In1472     O1484   2.262       .  S
C1473      O1479   1.262       .  A
C1473      O1481   1.262       .  A
O1474      C1482   1.262       .  A
O1475      C1482   1.257       .  A
C1476      O1483   1.256       .  A
C1476      O1477   1.258       .  A
C1476      C1497   1.473       .  S
C1478      O1480   1.258       .  A
C1478      O1484   1.261       .  A
C1485      C1486   1.529       .  S
C1485      C1491   1.530       .  S
C1485      C1489   1.531       .  S
C1485      C1498   1.508       .  S
C1486      H1493   1.086       .  S
C1486      C1487   1.369       .  D
C1487      C1509   1.493       .  S
C1487      C1488   1.551       .  S
C1488      C1716   1.545       .  S
C1488      C1490   1.551       .  S
C1488      H1718   1.109       .  S
C1489      H1495   1.086       .  S
C1489      C1490   1.369       .  D
C1490      C1527   1.488       .  S
C1491      H1496   1.087       .  S
C1491      C1716   1.360       .  D
C1492      C1712   1.548       .  S
C1492      C1715   1.360       .  D
C1492      C1502   1.481   1_556  S
H1494      C1712   1.108   1_554  S
C1497      H1499   1.086       .  S
C1497      C1498   1.344       .  D
C1498      H1500   1.087       .  S
C1501      H1503   1.086       .  S
C1501      C1502   1.344       .  D
C1502      H1504   1.087       .  S
C1505      C1506   1.405       .  A
C1505      C1510   1.398       .  A
C1505      H1511   1.082       .  S
C1506      C1507   1.412       .  A
C1507      C1508   1.403       .  A
C1507      H1512   1.058       .  S
C1508      C1509   1.401       .  A
C1508      H1513   1.085       .  S
C1509      C1510   1.409       .  A
C1510      H1514   1.079       .  S
C1515      H1517   1.086       .  S
C1515      C1516   1.346       .  D
C1516      H1518   1.087       .  S
C1519      H1521   1.086       .  S
C1519      C1520   1.344       .  D
C1520      H1522   1.087       .  S
C1523      C1524   1.402       .  A
C1523      C1528   1.399       .  A
C1523      H1529   1.082       .  S
C1524      C1525   1.411       .  A
C1525      C1526   1.397       .  A
C1525      H1754   1.082       .  S
C1526      C1527   1.400       .  A
C1526      H1755   1.083       .  S
C1527      C1528   1.409       .  A
C1528      H1532   1.082       .  S
H1530      C1749   1.082       .  S
H1531      C1750   1.081       .  S
C1533      H1535   1.085       .  S
C1533      C1534   1.346       .  D
C1534      H1536   1.088       .  S
C1537      H1539   1.087       .  S
C1537      C1538   1.340       .  D
C1538      H1540   1.087       .  S
C1541      C1542   1.401       .  A
C1541      C1546   1.404       .  A
C1541      H1547   1.084       .  S
C1542      C1543   1.408       .  A
C1543      C1544   1.396       .  A
C1543      H1548   1.080       .  S
C1544      C1545   1.404       .  A
C1544      H1549   1.082       .  S
C1545      C1546   1.411       .  A
C1546      H1550   1.058       .  S
C1551      C1552   1.405       .  A
C1551      C1556   1.404       .  A
C1551      H1557   1.082       .  S
C1552      C1553   1.402       .  A
C1553      C1554   1.402       .  A
C1553      H1558   1.083       .  S
C1554      C1555   1.407       .  A
C1554      H1559   1.083       .  S
C1555      C1556   1.405       .  A
C1556      H1560   1.083       .  S
C1561      H1563   1.080       .  S
C1561      C1562   1.349       .  D
C1562      H1564   1.087       .  S
C1565      H1567   1.085       .  S
C1565      C1566   1.350       .  D
C1566      H1568   1.085       .  S
In1569     O1571   2.260       .  S
In1569     O1572   2.244       .  S
In1569     O1580   2.316       .  S
In1569     O1574   2.238       .  S
In1569     O1576   2.246       .  S
In1569     O1577   2.231       .  S
In1569     O1578   2.266       .  S
In1569     O1581   2.281       .  S
C1570      O1576   1.259       .  A
C1570      O1578   1.261       .  A
C1570      C1583   1.470       .  S
O1571      C1579   1.261       .  A
O1572      C1579   1.259       .  A
C1573      O1580   1.262       .  A
C1573      O1574   1.254       .  A
C1573      C1789   1.484       .  S
C1575      O1577   1.258       .  A
C1575      O1581   1.265       .  A
In1582     O1584   2.301       .  S
In1582     O1585   2.219       .  S
In1582     O1593   2.224       .  S
In1582     O1587   2.279       .  S
In1582     O1589   2.249       .  S
In1582     O1590   2.237       .  S
In1582     O1591   2.268       .  S
In1582     O1594   2.241       .  S
C1583      O1589   1.258       .  A
C1583      O1591   1.262       .  A
O1584      C1592   1.264       .  A
O1585      C1592   1.257       .  A
C1586      O1593   1.254       .  A
C1586      O1587   1.260       .  A
C1586      C1785   1.475       .  S
C1588      O1590   1.260       .  A
C1588      O1594   1.261       .  A
C1595      C1596   1.533       .  S
C1595      C1601   1.530       .  S
C1595      C1599   1.529       .  S
C1595      C1786   1.511       .  S
C1596      H1603   1.085       .  S
C1596      C1597   1.373       .  D
C1597      C1776   1.495       .  S
C1597      C1598   1.554       .  S
C1598      C1600   1.541       .  S
C1599      H1605   1.086       .  S
C1599      C1600   1.365       .  D
C1600      C1766   1.480       .  S
C1601      H1606   1.085       .  S
C1602      C1790   1.503       .  S
In1607     O1609   2.219       .  S
In1607     O1610   2.289       .  S
In1607     O1618   2.266       .  S
In1607     O1612   2.233       .  S
In1607     O1614   2.252       .  S
In1607     O1615   2.243       .  S
In1607     O1616   2.252       .  S
In1607     O1619   2.243       .  S
C1608      O1614   1.259       .  A
C1608      O1616   1.259       .  A
C1608      C1621   1.465       .  S
O1609      C1617   1.257       .  A
O1610      C1617   1.263       .  A
C1611      O1618   1.261       .  A
C1611      O1612   1.252       .  A
C1611      C1761   1.467       .  S
C1613      O1615   1.262       .  A
C1613      O1619   1.262       .  A
In1620     O1622   2.282       .  S
In1620     O1623   2.235       .  S
In1620     O1631   2.295       .  S
In1620     O1625   2.234       .  S
In1620     O1627   2.246       .  S
In1620     O1628   2.237       .  S
In1620     O1629   2.247       .  S
In1620     O1632   2.278       .  S
C1621      O1627   1.261       .  A
C1621      O1629   1.261       .  A
O1622      C1630   1.262       .  A
O1623      C1630   1.257       .  A
C1624      O1631   1.260       .  A
C1624      O1625   1.257       .  A
C1624      C1757   1.488       .  S
C1626      O1628   1.258       .  A
C1626      O1632   1.262       .  A
C1633      C1634   1.534       .  S
C1633      C1637   1.526       .  S
C1633      C1762   1.509       .  S
C1634      H1641   1.086       .  S
C1635      C1779   1.495       .  S
C1635      C1636   1.550       .  S
C1636      C1640   1.551       .  S
C1636      C1638   1.551       .  S
C1636      H1642   1.107       .  S
C1637      H1643   1.085       .  S
C1638      C1748   1.486       .  S
C1639      H1644   1.087       .  S
C1639      C1640   1.362       .  D
C1640      C1758   1.488       .  S
In1645     O1647   2.242       .  S
In1645     O1648   2.228       .  S
In1645     O1656   2.258       .  S
In1645     O1650   2.253       .  S
In1645     O1652   2.311       .  S
In1645     O1653   2.238       .  S
In1645     O1654   2.208       .  S
In1645     O1657   2.259       .  S
C1646      O1652   1.266       .  A
C1646      O1654   1.254       .  A
C1646      C1659   1.472       .  S
O1647      C1655   1.263       .  A
O1648      C1655   1.260       .  A
C1649      O1656   1.256       .  A
C1649      O1650   1.259       .  A
C1649      C1744   1.476       .  S
C1651      O1653   1.258       .  A
C1651      O1657   1.261       .  A
In1658     O1660   2.254       .  S
In1658     O1661   2.232       .  S
In1658     O1669   2.278       .  S
In1658     O1663   2.236       .  S
In1658     O1665   2.311       .  S
In1658     O1666   2.234       .  S
In1658     O1667   2.208       .  S
In1658     O1670   2.261       .  S
C1659      O1665   1.266       .  A
C1659      O1667   1.255       .  A
O1660      C1668   1.262       .  A
O1661      C1668   1.259       .  A
C1662      O1669   1.262       .  A
C1662      O1663   1.254       .  A
C1662      C1739   1.474       .  S
C1664      O1666   1.258       .  A
C1664      O1670   1.262       .  A
C1671      C1672   1.527       .  S
C1671      C1677   1.533       .  S
C1671      C1675   1.531       .  S
C1671      C1740   1.516       .  S
C1672      H1679   1.086       .  S
C1672      C1673   1.368       .  D
C1673      C1769   1.482       .  S
C1673      C1674   1.546       .  S
C1674      C1676   1.547       .  S
C1675      H1681   1.086       .  S
C1675      C1676   1.369       .  D
C1676      C1730   1.491       .  S
C1677      H1682   1.086       .  S
C1678      C1743   1.473       .  S
In1683     O1685   2.256       .  S
In1683     O1686   2.251       .  S
In1683     O1694   2.268       .  S
In1683     O1688   2.273       .  S
In1683     O1690   2.256       .  S
In1683     O1691   2.279       .  S
In1683     O1692   2.238       .  S
In1683     O1695   2.235       .  S
C1684      O1690   1.260       .  A
C1684      O1692   1.259       .  A
C1684      C1697   1.463       .  S
O1685      C1693   1.259       .  A
O1686      C1693   1.261       .  A
C1687      O1694   1.256       .  A
C1687      O1688   1.259       .  A
C1687      C1725   1.483       .  S
C1689      O1691   1.263       .  A
C1689      O1695   1.257       .  A
In1696     O1698   2.260       .  S
In1696     O1699   2.257       .  S
In1696     O1707   2.248       .  S
In1696     O1701   2.249       .  S
In1696     O1703   2.268       .  S
In1696     O1704   2.244       .  S
In1696     O1705   2.241       .  S
In1696     O1708   2.253       .  S
C1697      O1703   1.260       .  A
C1697      O1705   1.256       .  A
O1698      C1706   1.257       .  A
O1699      C1706   1.258       .  A
C1700      O1707   1.253       .  A
C1700      O1701   1.257       .  A
C1700      C1721   1.466       .  S
C1702      O1704   1.263       .  A
C1702      O1708   1.261       .  A
C1709      C1710   1.530       .  S
C1709      C1715   1.525       .  S
C1709      C1713   1.528       .  S
C1709      C1722   1.505       .  S
C1710      H1717   1.086       .  S
C1710      C1711   1.369       .  D
C1711      C1733   1.488       .  S
C1711      C1712   1.548       .  S
C1712      C1714   1.549       .  S
C1713      H1719   1.085       .  S
C1713      C1714   1.369       .  D
C1714      C1751   1.491       .  S
C1715      H1720   1.087       .  S
C1716      C1726   1.481       .  S
C1721      H1723   1.087       .  S
C1721      C1722   1.340       .  D
C1722      H1724   1.087       .  S
C1725      H1727   1.087       .  S
C1725      C1726   1.343       .  D
C1726      H1728   1.086       .  S
C1729      C1730   1.405       .  A
C1729      C1734   1.394       .  A
C1729      H1735   1.083       .  S
C1730      C1731   1.406       .  A
C1731      C1732   1.404       .  A
C1731      H1736   1.075       .  S
C1732      C1733   1.405       .  A
C1732      H1737   1.083       .  S
C1733      C1734   1.404       .  A
C1734      H1738   1.082       .  S
C1739      H1741   1.087       .  S
C1739      C1740   1.342       .  D
C1740      H1742   1.087       .  S
C1743      H1745   1.086       .  S
C1743      C1744   1.340       .  D
C1744      H1746   1.087       .  S
C1747      C1748   1.400       .  A
C1747      C1752   1.396       .  A
C1747      H1753   1.082       .  S
C1748      C1749   1.408   1_556  A
C1749      C1750   1.397       .  A
C1750      C1751   1.403   1_554  A
C1751      C1752   1.411       .  A
C1752      H1756   1.081       .  S
C1757      H1759   1.085       .  S
C1757      C1758   1.345       .  D
C1758      H1760   1.088       .  S
C1761      H1763   1.087       .  S
C1761      C1762   1.339       .  D
C1762      H1764   1.087       .  S
C1765      C1766   1.404       .  A
C1765      C1770   1.401       .  A
C1765      H1771   1.084       .  S
C1766      C1767   1.403       .  A
C1767      C1768   1.393       .  A
C1767      H1772   1.083       .  S
C1768      C1769   1.404       .  A
C1768      H1773   1.083       .  S
C1769      C1770   1.404       .  A
C1770      H1774   1.075       .  S
C1775      C1776   1.412       .  A
C1775      C1780   1.405       .  A
C1775      H1781   1.082       .  S
C1776      C1777   1.402   1_556  A
C1777      C1778   1.394       .  A
C1777      H1782   1.081       .  S
C1778      C1779   1.407   1_554  A
C1778      H1783   1.081       .  S
C1779      C1780   1.406       .  A
C1780      H1784   1.082       .  S
C1785      H1787   1.085       .  S
C1785      C1786   1.346       .  D
C1786      H1788   1.087       .  S
C1789      H1791   1.085       .  S
C1789      C1790   1.353       .  D
C1790      H1792   1.085       .  S
