geometry optimzed in LAMMPS
_audit_creation_date              2020-11-30 
_audit_creation_method            'lammps2cif' 
_symmetry_space_group_name_H-M    'P1' 
_symmetry_Int_Tables_number       1 
_symmetry_cell_setting            triclinic 
loop_ 
_symmetry_equiv_pos_as_xyz 
  x,y,z 
_cell_length_a                    42.36022988 
_cell_length_b                    42.712811851107745 
_cell_length_c                    42.30758398715868 
_cell_angle_alpha                 90.3517835909912 
_cell_angle_beta                  89.86583410104188 
_cell_angle_gamma                 89.54273700896137 
loop_ 
_atom_site_label 
_atom_site_type_symbol 
_atom_site_fract_x 
_atom_site_fract_y 
_atom_site_fract_z 
_atom_site_charge 
O1          O  0.52429674  0.43583597  0.93736651    -0.57900
C2          C  0.44608214  0.43035369  0.92323871     0.74700
O3          O  0.49950607  0.34545325  0.87867041    -0.59100
C4          C  0.55144991  0.42974962  0.92647745     0.74700
C5          C  0.50002097  0.35738198  0.98095041     0.77000
Cd6        Cd  0.49922163  0.38792335  0.92145883     1.37500
O7          O  0.47414847  0.43843965  0.92863811    -0.57900
O8          O  0.52527375  0.36097738  0.96543408    -0.56800
C9          C  0.50049472  0.36577540  0.85694159     0.77000
O10         O  0.47436163  0.36081776  0.96608970    -0.59100
O11         O  0.44145926  0.40151116  0.91784646    -0.57600
O12         O  0.55580143  0.40275843  0.91450112    -0.57600
O13         O  0.50104829  0.39394322  0.86574430    -0.56700
O14         O  0.42809320  0.48273687  0.92561303    -0.57900
C15         C  0.41659611  0.55874577  0.92049477     0.74700
O16         O  0.33382772  0.50661987  0.87374837    -0.59100
C17         C  0.42106824  0.45423466  0.92231702     0.74700
C18         C  0.34572946  0.50617338  0.97753488     0.77000
Cd19       Cd  0.37611988  0.50489289  0.91745194     1.37500
O20         O  0.42281243  0.53290185  0.93345203    -0.57900
O21         O  0.34888362  0.48063373  0.96248060    -0.56800
C22         C  0.35450653  0.50123521  0.85260046     0.77000
O23         O  0.34880283  0.53108788  0.96186219    -0.59100
O24         O  0.39021125  0.56100217  0.90655027    -0.57600
O25         O  0.39222745  0.44809627  0.91744110    -0.57600
O26         O  0.38221765  0.49656022  0.86223452    -0.56700
O27         O  0.46702357  0.57835164  0.93284643    -0.57900
C28         C  0.54585622  0.58200982  0.91690246     0.74700
O29         O  0.49229965  0.66786228  0.87203239    -0.59100
C30         C  0.44039571  0.58346765  0.92044543     0.74700
C31         C  0.49373204  0.65540330  0.97549357     0.77000
Cd32       Cd  0.49305464  0.62507225  0.91496880     1.37500
O33         O  0.51739319  0.57375087  0.91512624    -0.57900
O34         O  0.46793172  0.65039514  0.96136046    -0.56800
C35         C  0.49286388  0.64722925  0.85030641     0.77000
O36         O  0.51867342  0.65303600  0.95910881    -0.59100
O37         O  0.55101987  0.61119964  0.91762527    -0.57600
O38         O  0.43652747  0.60965712  0.90694459    -0.57600
O39         O  0.49358249  0.61924316  0.85930046    -0.56700
O40         O  0.56343458  0.52951277  0.91680118    -0.57900
C41         C  0.57536245  0.45422135  0.92616071     0.74700
O42         O  0.65896495  0.51076516  0.87620559    -0.59100
C43         C  0.57078768  0.55803029  0.91802909     0.74700
C44         C  0.64406610  0.50745267  0.98107201     0.77000
Cd45       Cd  0.61580599  0.50688936  0.91948512     1.37500
O46         O  0.56830910  0.48136329  0.93609256    -0.57900
O47         O  0.64091935  0.48206833  0.96585915    -0.56800
C48         C  0.63881150  0.50481777  0.85485312     0.77000
O49         O  0.64075556  0.53249569  0.96553804    -0.59100
O50         O  0.60278720  0.45024245  0.91460461    -0.57600
O51         O  0.59996032  0.56407403  0.92019005    -0.57600
O52         O  0.61137841  0.49891764  0.86428962    -0.56700
O53         O  0.46476448  0.94571046  0.42451829    -0.57900
C54         C  0.54310721  0.92850744  0.42123212     0.74700
O55         O  0.49429233  0.87380262  0.37993361    -0.59100
C56         C  0.43758883  0.93568970  0.41800766     0.74700
C57         C  0.49544998  0.99052018  0.34875532     0.77000
Cd58       Cd  0.49162546  0.92941077  0.37663381     1.37500
O59         O  0.51432872  0.92871493  0.42906352    -0.57900
O60         O  0.51996210  0.97397307  0.35300220    -0.56800
C61         C  0.49236921  0.86572873  0.35137984     0.77000
O62         O  0.46924956  0.97659146  0.35066275    -0.59100
O63         O  0.54912659  0.92863969  0.39184670    -0.57600
O64         O  0.43393029  0.92380524  0.39070903    -0.57600
O65         O  0.48997322  0.88790822  0.33166019    -0.56700
O66         O  0.41950678  0.94607690  0.46991355    -0.57900
C67         C  0.41467459  0.93146387  0.54844451     0.74700
O68         O  0.34525485  0.97797461  0.52125265    -0.59100
C69         C  0.41291876  0.93635070  0.44244821     0.74700
C70         C  0.34854673  0.86755560  0.49275318     0.77000
Cd71       Cd  0.37073829  0.93197872  0.49567374     1.37500
O72         O  0.42245121  0.93656766  0.52016308    -0.57900
O73         O  0.32830381  0.88817635  0.50092355    -0.56800
C74         C  0.34238964  0.99324976  0.49588634     0.77000
O75         O  0.37527331  0.87768846  0.48515711    -0.59100
O76         O  0.38558781  0.92685252  0.55354440    -0.57600
O77         O  0.38524232  0.92597478  0.43822368    -0.57600
O78         O  0.34494562  0.97776551  0.47039897    -0.56700
O79         O  0.51863499  0.94301582  0.56957675    -0.57900
C80         C  0.43910790  0.93057948  0.57312743     0.74700
O81         O  0.49436558  0.88241393  0.65807930    -0.59100
C82         C  0.54525655  0.93099138  0.57560192     0.74700
C83         C  0.49178128  0.98670235  0.64863361     0.77000
Cd84       Cd  0.49154098  0.92710608  0.61693482     1.37500
O85         O  0.46732210  0.93676776  0.56602059    -0.57900
O86         O  0.46638548  0.97148928  0.64598474    -0.56800
C87         C  0.49423982  0.86195902  0.63614287     0.77000
O88         O  0.51717139  0.97156816  0.64396817    -0.59100
O89         O  0.43386297  0.92319170  0.60166972    -0.57600
O90         O  0.54843418  0.91817798  0.60236754    -0.57600
O91         O  0.49173945  0.87227521  0.60847408    -0.56700
O92         O  0.55946686  0.92719274  0.47454301    -0.57900
C93         C  0.56991483  0.93078677  0.55128581     0.74700
O94         O  0.65645959  0.88482611  0.49378047    -0.59100
C95         C  0.56749147  0.92808686  0.44584499     0.74700
C96         C  0.64115542  0.98651541  0.50082338     0.77000
Cd97       Cd  0.61171721  0.92641315  0.49793620     1.37500
O98         O  0.56456873  0.94363512  0.52501378    -0.57900
O99         O  0.63767376  0.97239887  0.47468626    -0.56800
C100        C  0.63641502  0.86291794  0.49441856     0.77000
O101        O  0.63753501  0.97042964  0.52556824    -0.59100
O102        O  0.59624816  0.91675895  0.55433577    -0.57600
O103        O  0.59687873  0.92856350  0.44014026    -0.57600
O104        O  0.60806267  0.87122375  0.49783353    -0.56700
O105        O  0.92253720  0.47838495  0.56259208    -0.57900
C106        C  0.92260130  0.55648767  0.57358149     0.74700
O107        O  0.87037609  0.50241439  0.65536958    -0.59100
C108        C  0.91865383  0.45026495  0.57062987     0.74700
C109        C  0.97545595  0.50137291  0.64361797     0.77000
Cd110      Cd  0.91512354  0.50303182  0.61381069     1.37500
O111        O  0.92636288  0.52843329  0.56463196    -0.57900
O112        O  0.95955828  0.47657608  0.64068533    -0.56800
C113        C  0.84972566  0.50592248  0.63395577     0.77000
O114        O  0.96074219  0.52699446  0.64011884    -0.59100
O115        O  0.91590157  0.56095807  0.60251717    -0.57600
O116        O  0.91332833  0.44540596  0.59970158    -0.57600
O117        O  0.85999978  0.50830353  0.60619544    -0.56700
O118        O  0.92619968  0.57262127  0.47518297    -0.57900
C119        C  0.92475320  0.58158384  0.55021487     0.74700
O120        O  0.96900686  0.64841273  0.52402368    -0.59100
C121        C  0.92339700  0.57980186  0.44648987     0.74700
C122        C  0.86001593  0.65178093  0.49957168     0.77000
Cd123      Cd  0.92278007  0.62469044  0.49847837     1.37500
O124        O  0.93174091  0.57458432  0.52201393    -0.57900
O125        O  0.86800830  0.62458470  0.50757941    -0.56800
C126        C  0.98400951  0.65137800  0.49832790     0.77000
O127        O  0.88225191  0.66997817  0.49209538    -0.59100
O128        O  0.91856515  0.61019199  0.55610054    -0.57600
O129        O  0.92039211  0.60873507  0.44056547    -0.57600
O130        O  0.96839538  0.64878855  0.47304677    -0.56700
O131        O  0.93619062  0.42964218  0.47091125    -0.57900
C132        C  0.91981884  0.42541989  0.54643794     0.74700
O133        O  0.87991545  0.33866856  0.50747500    -0.59100
C134        C  0.92681774  0.42378468  0.44314555     0.74700
C135        C  0.98262649  0.35119674  0.49161492     0.77000
Cd136      Cd  0.92164645  0.38036191  0.49448817     1.37500
O137        O  0.92014480  0.43265286  0.51763677    -0.57900
O138        O  0.96788016  0.35366808  0.51751335    -0.56800
C139        C  0.85869195  0.35427251  0.49343295     0.77000
O140        O  0.96682199  0.35564399  0.46671772    -0.59100
O141        O  0.92036083  0.39641583  0.55250047    -0.57600
O142        O  0.91622742  0.39650545  0.43790346    -0.57600
O143        O  0.86780981  0.37780676  0.47831814    -0.56700
O144        O  0.93763804  0.47532171  0.42633912    -0.57900
C145        C  0.92336555  0.55493639  0.42226343     0.74700
O146        O  0.96688987  0.47699005  0.35022842    -0.59100
C147        C  0.92687193  0.44866386  0.41936626     0.74700
C148        C  0.85631404  0.50311849  0.35776743     0.77000
Cd149      Cd  0.92176157  0.50234638  0.37860634     1.37500
O150        O  0.92702549  0.52673705  0.43036306    -0.57900
O151        O  0.86633793  0.50136128  0.38565018    -0.56800
C152        C  0.98224431  0.50210496  0.34727223     0.77000
O153        O  0.87731082  0.50422045  0.33633483    -0.59100
O154        O  0.91941161  0.55990221  0.39301502    -0.57600
O155        O  0.91493287  0.44554748  0.39206765    -0.57600
O156        O  0.96707854  0.52732468  0.35211270    -0.56700
O157        O  0.47328548  0.43442224  0.05578059    -0.57900
C158        C  0.55049047  0.43251466  0.07604328     0.74700
O159        O  0.50561634  0.34471135  0.11682816    -0.59100
C160        C  0.44634757  0.42922646  0.06741010     0.74700
C161        C  0.50042419  0.35745864  0.01550064     0.77000
Cd162      Cd  0.49950733  0.38794162  0.07524155     1.37500
O163        O  0.52164404  0.43989422  0.07714319    -0.57900
O164        O  0.52580505  0.36282878  0.03017636    -0.56800
C165        C  0.49976299  0.36417121  0.13885990     0.77000
O166        O  0.47501321  0.35921258  0.03124428    -0.59100
O167        O  0.55695745  0.40352496  0.07444613    -0.57600
O168        O  0.44258070  0.40313761  0.08105798    -0.57600
O169        O  0.49243391  0.39146437  0.13051148    -0.56700
O170        O  0.42921524  0.53253288  0.05845704    -0.57900
C171        C  0.42202255  0.45379986  0.06677444     0.74700
O172        O  0.38825312  0.50898271  0.12670937    -0.59100
C173        C  0.42193369  0.55973047  0.06800126     0.74700
C174        C  0.34695773  0.50680034  0.01218860     0.77000
Cd175      Cd  0.38001440  0.50702073  0.07112371     1.37500
O176        O  0.42831656  0.48025831  0.05530743    -0.57900
O177        O  0.35083366  0.48179255  0.02758511    -0.56800
C178        C  0.36041371  0.50635042  0.13673945     0.77000
O179        O  0.35131044  0.53219060  0.02705767    -0.59100
O180        O  0.39494110  0.45071190  0.07909421    -0.57600
O181        O  0.39397217  0.56377097  0.07810992    -0.57600
O182        O  0.33901667  0.50459582  0.11583272    -0.56700
O183        O  0.52357008  0.57926358  0.06038544    -0.57900
C184        C  0.44588564  0.58433991  0.06818841     0.74700
O185        O  0.49694461  0.67070006  0.11387871    -0.59100
C186        C  0.55081453  0.58653592  0.06973169     0.74700
C187        C  0.49511206  0.65634808  0.01016114     0.77000
Cd188      Cd  0.49736052  0.62790465  0.07101631     1.37500
O189        O  0.47372823  0.57786326  0.05955873    -0.57900
O190        O  0.47031206  0.65371471  0.02661287    -0.56800
C191        C  0.49738456  0.65022138  0.13552383     0.77000
O192        O  0.52114989  0.65313331  0.02445181    -0.59100
O193        O  0.44063534  0.61214414  0.07764637    -0.57600
O194        O  0.55490740  0.61471012  0.07837935    -0.57600
O195        O  0.49775708  0.62210345  0.12655940    -0.56700
O196        O  0.56555914  0.48552108  0.07758140    -0.57900
C197        C  0.57513112  0.56213467  0.07149934     0.74700
O198        O  0.65990857  0.51288420  0.12082607    -0.59100
C199        C  0.57433936  0.45720759  0.07668325     0.74700
C200        C  0.64443542  0.50792084  0.01583280     0.77000
Cd201      Cd  0.61687393  0.50939946  0.07777562     1.37500
O202        O  0.56815199  0.53444347  0.06386495    -0.57900
O203        O  0.64135932  0.48298314  0.03152683    -0.56800
C204        C  0.63927189  0.51067693  0.14251140     0.77000
O205        O  0.64166988  0.53340603  0.03102990    -0.59100
O206        O  0.60288967  0.56670943  0.08159990    -0.57600
O207        O  0.60387914  0.45196092  0.07637129    -0.57600
O208        O  0.61124464  0.50749857  0.13345748    -0.56700
O209        O  0.46691219  0.06558075  0.57192990    -0.57900
C210        C  0.54423488  0.08158089  0.57760320     0.74700
O211        O  0.49401039  0.12373034  0.66517891    -0.59100
C212        C  0.43960887  0.07638314  0.57747770     0.74700
C213        C  0.49166745  0.02114562  0.64919181     0.77000
Cd214      Cd  0.49129395  0.08193832  0.62076537     1.37500
O215        O  0.51575379  0.08256325  0.56905540    -0.57900
O216        O  0.46616852  0.03665391  0.64696892    -0.56800
C217        C  0.49106386  0.14578271  0.64540534     0.77000
O218        O  0.51699536  0.03613147  0.64520779    -0.59100
O219        O  0.54932652  0.08087593  0.60710877    -0.57600
O220        O  0.43472815  0.08804354  0.60473577    -0.57600
O221        O  0.48690054  0.13757632  0.61713832    -0.56700
O222        O  0.56199096  0.08150795  0.52468493    -0.57900
C223        C  0.57454739  0.08193532  0.44782355     0.74700
O224        O  0.61206106  0.13645575  0.51395531    -0.59100
C225        C  0.56928648  0.08138103  0.55362091     0.74700
C226        C  0.64203407  0.02085822  0.50229179     0.77000
Cd227      Cd  0.61462761  0.08233996  0.50292283     1.37500
O228        O  0.56798472  0.06849045  0.47346262    -0.57900
O229        O  0.64088172  0.03700930  0.47735786    -0.56800
C230        C  0.63970690  0.14474691  0.50742494     0.77000
O231        O  0.63753190  0.03532378  0.52812227    -0.59100
O232        O  0.60115574  0.09522761  0.44628603    -0.57600
O233        O  0.59851583  0.08120481  0.56015089    -0.57600
O234        O  0.65902556  0.12301726  0.50004306    -0.56700
O235        O  0.42900471  0.08054670  0.47427087    -0.57900
C236        C  0.41623505  0.07731538  0.55206712     0.74700
O237        O  0.33807033  0.13287173  0.49530874    -0.59100
C238        C  0.42156525  0.08454627  0.44571063     0.74700
C239        C  0.34411688  0.02766615  0.49606212     0.77000
Cd240      Cd  0.37709460  0.08631802  0.49777594     1.37500
O241        O  0.42374489  0.06782036  0.52467993    -0.57900
O242        O  0.34952867  0.04256546  0.47089044    -0.56800
C243        C  0.35988397  0.15236835  0.50096333     0.77000
O244        O  0.34704615  0.04278392  0.52168668    -0.59100
O245        O  0.38895133  0.08934041  0.55544440    -0.57600
O246        O  0.39245395  0.08863509  0.43998207    -0.57600
O247        O  0.38682143  0.14088537  0.50590340    -0.56700
O248        O  0.52428782  0.07079604  0.42697582    -0.57900
C249        C  0.44641256  0.08485771  0.42140298     0.74700
O250        O  0.50938420  0.12772656  0.33493290    -0.59100
C251        C  0.55105791  0.08265083  0.42238443     0.74700
C252        C  0.49711595  0.02492921  0.34893425     0.77000
Cd253      Cd  0.49922942  0.08584737  0.37804883     1.37500
O254        O  0.47487249  0.08125605  0.42950639    -0.57900
O255        O  0.52311363  0.03871991  0.35308727    -0.56800
C256        C  0.50069868  0.14934790  0.35381435     0.77000
O257        O  0.47241438  0.04163808  0.35129636    -0.59100
O258        O  0.44123078  0.08902285  0.39217140    -0.57600
O259        O  0.55543044  0.09557869  0.39585374    -0.57600
O260        O  0.49007494  0.14057392  0.38007813    -0.56700
O261        O  0.06560453  0.47619376  0.42303118    -0.57900
C262        C  0.07631363  0.55362904  0.41779152     0.74700
O263        O  0.12337171  0.50519146  0.33174618    -0.59100
C264        C  0.07458569  0.44879591  0.41586280     0.74700
C265        C  0.01700793  0.50194433  0.34588207     0.77000
Cd266      Cd  0.07871322  0.50146886  0.37404467     1.37500
O267        O  0.07136246  0.52555502  0.42531694    -0.57900
O268        O  0.03275001  0.47666656  0.34740017    -0.56800
C269        C  0.14442155  0.50218017  0.35289005     0.77000
O270        O  0.03224742  0.52701129  0.34980817    -0.59100
O271        O  0.08193170  0.55881000  0.38885079    -0.57600
O272        O  0.08464747  0.44444123  0.38787641    -0.57600
O273        O  0.13440621  0.49782771  0.38051102    -0.56700
O274        O  0.06369128  0.43083832  0.46732216    -0.57900
C275        C  0.06990451  0.42289907  0.54656562     0.74700
O276        O  0.03190682  0.35667286  0.46559325    -0.59100
C277        C  0.07420264  0.42440055  0.44008474     0.74700
C278        C  0.14150949  0.36215229  0.49395906     0.77000
Cd279      Cd  0.07636976  0.38189030  0.49258450     1.37500
O280        O  0.06318744  0.43060095  0.51859798    -0.57900
O281        O  0.13108773  0.38947542  0.49842449    -0.56800
C282        C  0.01718869  0.35103352  0.49093612     0.77000
O283        O  0.12106591  0.34105016  0.48929838    -0.59100
O284        O  0.07887054  0.39482988  0.55081033    -0.57600
O285        O  0.08515477  0.39697423  0.43581559    -0.57600
O286        O  0.03288595  0.35221922  0.51631530    -0.56700
O287        O  0.05901558  0.47397382  0.56518164    -0.57900
C288        C  0.07242991  0.55122929  0.57146972     0.74700
O289        O  0.02569755  0.52524929  0.63947832    -0.59100
C290        C  0.06854402  0.44668376  0.57170155     0.74700
C291        C  0.13507193  0.49998559  0.63894456     0.77000
Cd292      Cd  0.07142262  0.49902352  0.61461822     1.37500
O293        O  0.06878436  0.52312865  0.56298264    -0.57900
O294        O  0.12676175  0.49580367  0.61076072    -0.56800
C295        C  0.01007803  0.50044490  0.64326929     0.77000
O296        O  0.11297985  0.50229989  0.65915405    -0.59100
O297        O  0.07474647  0.55630833  0.60091323    -0.57600
O298        O  0.07797742  0.44206694  0.59977283    -0.57600
O299        O  0.02504824  0.47483334  0.64023062    -0.56700
O300        O  0.06887053  0.57054408  0.47038629    -0.57900
C301        C  0.07422644  0.57583145  0.54747008     0.74700
O302        O  0.11948889  0.66438868  0.49647441    -0.59100
C303        C  0.07612137  0.57791300  0.44249860     0.74700
C304        C  0.01848012  0.65014274  0.49764250     0.77000
Cd305      Cd  0.07858839  0.61995078  0.49616289     1.37500
O306        O  0.07076773  0.56872636  0.51871341    -0.57900
O307        O  0.03313345  0.64623008  0.47181237    -0.56800
C308        C  0.14187921  0.64461637  0.49803968     0.77000
O309        O  0.03409645  0.64640696  0.52278456    -0.59100
O310        O  0.07966271  0.60438033  0.55369776    -0.57600
O311        O  0.08383151  0.60619665  0.43798228    -0.57600
O312        O  0.13402611  0.61630284  0.49868692    -0.56700
C313        C  0.67196586  0.51148856  0.22846269     0.86400
C314        C  0.65202206  0.48198466  0.23453913    -0.53900
C315        C  0.62352344  0.48182984  0.22022012     0.09300
C316        C  0.61731149  0.51063443  0.19993403     0.20200
C317        C  0.67445889  0.51219087  0.19165056    -0.54600
C318        C  0.64549847  0.51170490  0.17697397     0.09400
C319        C  0.64991943  0.53961633  0.23639654    -0.54100
C320        C  0.62126795  0.53895564  0.22180836     0.10000
H321        H  0.66039465  0.46223626  0.24837075     0.14500
H322        H  0.59392654  0.51015172  0.18816484     0.00200
H323        H  0.69586442  0.51200511  0.17791997     0.14800
H324        H  0.65658351  0.55847963  0.25231250     0.14600
C325        C  0.49393429  0.68428575  0.22058093     0.86400
C326        C  0.52389622  0.66515760  0.22950595    -0.53900
C327        C  0.52600646  0.63655591  0.21496081     0.09300
C328        C  0.49806351  0.62952210  0.19321506     0.20200
C329        C  0.49458276  0.68570501  0.18402839    -0.54600
C330        C  0.49695025  0.65688005  0.16985851     0.09400
C331        C  0.46692406  0.66153973  0.22902058    -0.54100
C332        C  0.46865098  0.63349828  0.21376385     0.10000
H333        H  0.54125099  0.67288399  0.24663389     0.14500
H334        H  0.49958502  0.60599622  0.18194533     0.00200
H335        H  0.49317789  0.70736532  0.17080117     0.14800
H336        H  0.44835235  0.66648665  0.24600354     0.14600
C337        C  0.22659215  0.67951065  0.50035371     0.86400
C338        C  0.23468060  0.65883473  0.47117122    -0.53900
C339        C  0.22078712  0.63033258  0.47101673     0.09300
C340        C  0.19951118  0.62476126  0.49943621     0.20200
C341        C  0.18969771  0.68119460  0.49933838    -0.54600
C342        C  0.17588457  0.65209322  0.49909425     0.09400
C343        C  0.23374897  0.65874839  0.52935872    -0.54100
C344        C  0.21960727  0.63028811  0.52871944     0.10000
H345        H  0.24943506  0.66660080  0.45173460     0.14500
H346        H  0.18882345  0.60109121  0.49901775     0.00200
H347        H  0.17550865  0.70215251  0.49772049     0.14800
H348        H  0.24788179  0.66652178  0.54926958     0.14600
C349        C  0.22082238  0.50337963  0.67158664     0.86400
C350        C  0.22646550  0.53391931  0.65298529    -0.53900
C351        C  0.21140156  0.53557354  0.62481520     0.09300
C352        C  0.19176514  0.50661733  0.61723575     0.20200
C353        C  0.18408519  0.50171112  0.67440838    -0.54600
C354        C  0.16920132  0.50304679  0.64551060     0.09400
C355        C  0.22867364  0.47646136  0.64817230    -0.54100
C356        C  0.21402708  0.47848128  0.61976682     0.10000
H357        H  0.24150444  0.55267266  0.66144731     0.14500
H358        H  0.18003231  0.50805208  0.59383450     0.00200
H359        H  0.17069521  0.49861039  0.69579404     0.14800
H360        H  0.24442794  0.45710110  0.65386890     0.14600
C361        C  0.67372548  0.22904450  0.50586953     0.86400
C362        C  0.65382298  0.23677732  0.53575332    -0.53900
C363        C  0.62517521  0.22272488  0.53662767     0.09300
C364        C  0.61874420  0.20180448  0.50807736     0.20200
C365        C  0.67578230  0.19252178  0.50610094    -0.54600
C366        C  0.64662276  0.17859774  0.50726535     0.09400
C367        C  0.65187325  0.23597904  0.47760662    -0.54100
C368        C  0.62319819  0.22218098  0.47895340     0.10000
H369        H  0.66222903  0.25143926  0.55499837     0.14500
H370        H  0.59512791  0.19071713  0.50884312     0.00200
H371        H  0.69696968  0.17848036  0.50606552     0.14800
H372        H  0.65884371  0.25044591  0.45776296     0.14600
C373        C  0.49784143  0.22997286  0.68050168     0.86400
C374        C  0.47228307  0.24163157  0.65706414    -0.53900
C375        C  0.47271068  0.22665041  0.62854737     0.09300
C376        C  0.49922415  0.20246200  0.62519215     0.20200
C377        C  0.49350330  0.19389405  0.68189233    -0.54600
C378        C  0.49409301  0.17966981  0.65265505     0.09400
C379        C  0.52890127  0.23456217  0.66175922    -0.54100
C380        C  0.52964451  0.21979557  0.63323450     0.10000
H381        H  0.45521346  0.26000083  0.66233528     0.14500
H382        H  0.49995030  0.19133203  0.60138980     0.00200
H383        H  0.49024885  0.18108580  0.70371646     0.14800
H384        H  0.54853673  0.24874164  0.66961953     0.14600
C385        C  0.32967263  0.50408815  0.22353872     0.86400
C386        C  0.35023649  0.53317243  0.23039828    -0.53900
C387        C  0.37845228  0.53328739  0.21518452     0.09300
C388        C  0.38376205  0.50504478  0.19355687     0.20200
C389        C  0.32641758  0.50469042  0.18678698    -0.54600
C390        C  0.35507846  0.50508306  0.17133746     0.09400
C391        C  0.35142882  0.47566654  0.22983604    -0.54100
C392        C  0.37950094  0.47620330  0.21424069     0.10000
H393        H  0.34276535  0.55239272  0.24569299     0.14500
H394        H  0.40705517  0.50545829  0.18144697     0.00200
H395        H  0.30464044  0.50625370  0.17377646     0.14800
H396        H  0.34521418  0.45682289  0.24577155     0.14600
C397        C  0.50626230  0.33188492  0.22433288     0.86400
C398        C  0.47807077  0.35370692  0.23325371    -0.53900
C399        C  0.47805734  0.38198917  0.21854499     0.09300
C400        C  0.50550199  0.38593352  0.19563450     0.20200
C401        C  0.50381175  0.32922411  0.18759367    -0.54600
C402        C  0.50296082  0.35788661  0.17297783     0.09400
C403        C  0.53613153  0.35200480  0.22935346    -0.54100
C404        C  0.53562275  0.38002757  0.21448872     0.10000
H405        H  0.45949359  0.34704443  0.24957038     0.14500
H406        H  0.50528294  0.40916803  0.18396433     0.00200
H407        H  0.50248806  0.30801875  0.17386483     0.14800
H408        H  0.55604648  0.34463266  0.24372600     0.14600
C409        C  0.50921788  0.23581769  0.32541778     0.86400
C410        C  0.53821767  0.23888672  0.34722521    -0.53900
C411        C  0.53557112  0.22304930  0.37489327     0.09300
C412        C  0.50515651  0.20463938  0.37798477     0.20200
C413        C  0.50643446  0.19955191  0.32044464    -0.54600
C414        C  0.50415891  0.18348143  0.34857704     0.09400
C415        C  0.48023982  0.24430118  0.34611635    -0.54100
C416        C  0.47849172  0.22816484  0.37356184     0.10000
H417        H  0.55862385  0.25308608  0.34165953     0.14500
H418        H  0.50359922  0.19207584  0.40086084     0.00200
H419        H  0.50608006  0.18776786  0.29770528     0.14800
H420        H  0.46222427  0.26113610  0.33916798     0.14600
C421        C  0.33323475  0.23965590  0.49786486     0.86400
C422        C  0.35412342  0.24386464  0.46842323    -0.53900
C423        C  0.38154766  0.22726543  0.46894468     0.09300
C424        C  0.38596235  0.20765830  0.49886579     0.20200
C425        C  0.32839559  0.20354863  0.49950030    -0.54600
C426        C  0.35630813  0.18693981  0.50026585     0.09400
C427        C  0.35452050  0.24670646  0.52652823    -0.54100
C428        C  0.38228623  0.23054613  0.52670654     0.10000
H429        H  0.34760263  0.25865776  0.44863906     0.14500
H430        H  0.40874038  0.19459047  0.49920182     0.00200
H431        H  0.30577916  0.19194096  0.49998524     0.14800
H432        H  0.34798894  0.26301862  0.54528105     0.14600
C433        C  0.23245098  0.50636125  0.32501254     0.86400
C434        C  0.23973368  0.47925146  0.34773866    -0.53900
C435        C  0.22327314  0.48039331  0.37520798     0.09300
C436        C  0.20018073  0.50789209  0.37758740     0.20200
C437        C  0.19589364  0.50416167  0.32003787    -0.54600
C438        C  0.17915372  0.50471814  0.34810689     0.09400
C439        C  0.23633566  0.53670034  0.34453870    -0.54100
C440        C  0.21972978  0.53731625  0.37201858     0.10000
H441        H  0.25603706  0.46022679  0.34213886     0.14500
H442        H  0.18730896  0.50855167  0.40049595     0.00200
H443        H  0.18437973  0.50201834  0.29730150     0.14800
H444        H  0.25128241  0.55595420  0.33734010     0.14600
C445        C  0.22872727  0.33299637  0.49521950     0.86400
C446        C  0.23363387  0.35385650  0.52484288    -0.53900
C447        C  0.21738052  0.38142370  0.52443320     0.09300
C448        C  0.19746362  0.38601602  0.49495962     0.20200
C449        C  0.19209971  0.32911111  0.49380892    -0.54600
C450        C  0.17606715  0.35723972  0.49392991     0.09400
C451        C  0.23583920  0.35443124  0.46674036    -0.54100
C452        C  0.21982417  0.38202555  0.46704198     0.10000
H453        H  0.24906236  0.34746249  0.54428484     0.14500
H454        H  0.18482124  0.40890934  0.49470627     0.00200
H455        H  0.17931479  0.30750449  0.49304200     0.14800
H456        H  0.25233346  0.34826730  0.44795580     0.14600
C457        C  0.49926989  0.33039157  0.77246174     0.86400
C458        C  0.52755991  0.35125105  0.76270374    -0.53900
C459        C  0.52784270  0.38003817  0.77718519     0.09300
C460        C  0.49951686  0.38573617  0.79899039     0.20200
C461        C  0.50028072  0.32959691  0.80900814    -0.54600
C462        C  0.50044226  0.35871948  0.82272227     0.09400
C463        C  0.47023692  0.35123281  0.76450661    -0.54100
C464        C  0.47044157  0.37981431  0.77875039     0.10000
H465        H  0.54535015  0.34421803  0.74553527     0.14500
H466        H  0.49929193  0.40941976  0.80999650     0.00200
H467        H  0.50055951  0.30811161  0.82257903     0.14800
H468        H  0.45122911  0.34458245  0.74877564     0.14600
C469        C  0.32430750  0.50217872  0.76568578     0.86400
C470        C  0.34721936  0.47485701  0.75812862    -0.53900
C471        C  0.37519569  0.47636845  0.77353527     0.09300
C472        C  0.37770470  0.50422744  0.79604594     0.20200
C473        C  0.32041843  0.50068827  0.80238068    -0.54600
C474        C  0.34892857  0.50167162  0.81806280     0.09400
C475        C  0.34312543  0.53246201  0.76065491    -0.54100
C476        C  0.37098200  0.53335461  0.77635747     0.10000
H477        H  0.34135860  0.45546516  0.74252469     0.14500
H478        H  0.40087796  0.50515953  0.80825566     0.00200
H479        H  0.29809271  0.49902953  0.81477108     0.14800
H480        H  0.33534492  0.55132287  0.74533678     0.14600
C481        C  0.32270114  0.77979753  0.49544536     0.86400
C482        C  0.34573297  0.77492251  0.52306759    -0.53900
C483        C  0.37260489  0.79169150  0.52101557     0.09300
C484        C  0.37427543  0.81244770  0.49184934     0.20200
C485        C  0.31664790  0.81604781  0.49562560    -0.54600
C486        C  0.34427297  0.83301569  0.49341048     0.09400
C487        C  0.34204371  0.77429078  0.46498367    -0.54100
C488        C  0.36911843  0.79094880  0.46336900     0.10000
H489        H  0.34117852  0.75922288  0.54265186     0.14500
H490        H  0.39685564  0.82542846  0.49051472     0.00200
H491        H  0.29357399  0.82711516  0.49700435     0.14800
H492        H  0.33536631  0.75762466  0.44673369     0.14600
C493        C  0.49168940  0.78183327  0.31486929     0.86400
C494        C  0.46366270  0.77361919  0.33698205    -0.53900
C495        C  0.46506753  0.78731938  0.36617213     0.09300
C496        C  0.49405021  0.80802011  0.37063228     0.20200
C497        C  0.49175679  0.81818563  0.31406816    -0.54600
C498        C  0.49275383  0.83176261  0.34354299     0.09400
C499        C  0.52085841  0.77246911  0.33470020    -0.54100
C500        C  0.52242524  0.78690027  0.36331773     0.10000
H501        H  0.44464183  0.75791265  0.33078442     0.14500
H502        H  0.49521023  0.81894703  0.39446011     0.00200
H503        H  0.49080740  0.83165118  0.29241588     0.14800
H504        H  0.53912584  0.75630094  0.32676784     0.14600
C505        C  0.76867273  0.50341164  0.32933327     0.86400
C506        C  0.76217700  0.53234882  0.35021304    -0.53900
C507        C  0.77841502  0.53285387  0.37768303     0.09300
C508        C  0.80008494  0.50450388  0.38220435     0.20200
C509        C  0.80529095  0.50362360  0.32459038    -0.54600
C510        C  0.82159058  0.50392515  0.35281129     0.09400
C511        C  0.76348289  0.47466864  0.35058740    -0.54100
C512        C  0.77916367  0.47564975  0.37864705     0.10000
H513        H  0.74682161  0.55156622  0.34314091     0.14500
H514        H  0.81297829  0.50520491  0.40498558     0.00200
H515        H  0.81717412  0.50300261  0.30188879     0.14800
H516        H  0.74842741  0.45524063  0.34397142     0.14600
C517        C  0.77135446  0.32733402  0.49891218     0.86400
C518        C  0.76482207  0.34868558  0.47029808    -0.53900
C519        C  0.78149888  0.37574378  0.47041177     0.09300
C520        C  0.80353015  0.37900614  0.49866873     0.20200
C521        C  0.80787314  0.32186295  0.49760340    -0.54600
C522        C  0.82440056  0.34954526  0.49704087     0.09400
C523        C  0.76663092  0.34803921  0.52847146    -0.54100
C524        C  0.78304766  0.37509041  0.52813061     0.10000
H525        H  0.74789955  0.34307053  0.45190826     0.14500
H526        H  0.81676265  0.40137923  0.49872198     0.00200
H527        H  0.81947282  0.29919905  0.49623006     0.14800
H528        H  0.75093722  0.34206244  0.54784082     0.14600
C529        C  0.76260571  0.50920739  0.66318935     0.86400
C530        C  0.75547829  0.48021326  0.64263573    -0.53900
C531        C  0.77152115  0.47900914  0.61485581     0.09300
C532        C  0.79339415  0.50686862  0.60984977     0.20200
C533        C  0.79918582  0.50787597  0.66733459    -0.54600
C534        C  0.81512354  0.50684637  0.63895285     0.09400
C535        C  0.75750842  0.53794000  0.64181800    -0.54100
C536        C  0.77296444  0.53634018  0.61364284     0.10000
H537        H  0.74039514  0.46129613  0.65044027     0.14500
H538        H  0.80598224  0.50584849  0.58680356     0.00200
H539        H  0.81144163  0.50813025  0.68976733     0.14800
H540        H  0.74292894  0.55794881  0.64853569     0.14600
C541        C  0.66947211  0.50778158  0.76801379     0.86400
C542        C  0.64907309  0.53745240  0.76304614    -0.53900
C543        C  0.62113535  0.53764416  0.77860532     0.09300
C544        C  0.61555663  0.50822939  0.79824689     0.20200
C545        C  0.67298277  0.50632747  0.80474245    -0.54600
C546        C  0.64438103  0.50616591  0.82028631     0.09400
C547        C  0.64759436  0.47993780  0.76028592    -0.54100
C548        C  0.61932762  0.48038427  0.77557184     0.10000
H549        H  0.65624471  0.55684287  0.74820679     0.14500
H550        H  0.59239050  0.50859520  0.81058754     0.00200
H551        H  0.69473310  0.50574336  0.81780848     0.14800
H552        H  0.65413050  0.46127298  0.74390695     0.14600
C553        C  0.49910169  0.77477203  0.66287964     0.86400
C554        C  0.52952699  0.77050725  0.64308926    -0.53900
C555        C  0.52958039  0.78673966  0.61551368     0.09300
C556        C  0.49999771  0.80676659  0.61065937     0.20200
C557        C  0.49683940  0.81098439  0.66819071    -0.54600
C558        C  0.49721471  0.82756202  0.64035166     0.09400
C559        C  0.47156256  0.76783139  0.64009431    -0.54100
C560        C  0.47238141  0.78436345  0.61283418     0.10000
H561        H  0.54857640  0.75465709  0.64956747     0.14500
H562        H  0.50033037  0.81969892  0.58795503     0.00200
H563        H  0.49474274  0.82248860  0.69098872     0.14800
H564        H  0.45245108  0.75193749  0.64562212     0.14600
C565        C  0.49298676  0.67926925  0.76418390     0.86400
C566        C  0.46457207  0.65783180  0.75671419    -0.53900
C567        C  0.46535701  0.62963423  0.77150695     0.09300
C568        C  0.49385730  0.62533083  0.79299066     0.20200
C569        C  0.49242697  0.68205122  0.80106051    -0.54600
C570        C  0.49275492  0.65340235  0.81585555     0.09400
C571        C  0.52275235  0.65891996  0.75788058    -0.54100
C572        C  0.52283722  0.63080795  0.77242188     0.10000
H573        H  0.44549325  0.66450372  0.74095270     0.14500
H574        H  0.49429270  0.60208187  0.80461755     0.00200
H575        H  0.49266416  0.70338991  0.81470292     0.14800
H576        H  0.54261099  0.66665507  0.74369421     0.14600
C577        C  0.77422878  0.68492561  0.49312539     0.86400
C578        C  0.76508752  0.66364924  0.52122684    -0.53900
C579        C  0.78033363  0.63552738  0.52172172     0.09300
C580        C  0.80360332  0.63091706  0.49470943     0.20200
C581        C  0.81096001  0.68770349  0.49603048    -0.54600
C582        C  0.82592242  0.65888961  0.49716794     0.09400
C583        C  0.77024807  0.66429322  0.46322081    -0.54100
C584        C  0.78523523  0.63626767  0.46441936     0.10000
H585        H  0.74766211  0.67023860  0.53899415     0.14500
H586        H  0.81524665  0.60751150  0.49510902     0.00200
H587        H  0.82427543  0.70907558  0.49667700     0.14800
H588        H  0.75609500  0.67109214  0.44295374     0.14600
C589        C  0.66981004  0.77792986  0.48567971     0.86400
C590        C  0.65084716  0.77423653  0.45481550    -0.53900
C591        C  0.62238363  0.78904786  0.45506122     0.09300
C592        C  0.61534357  0.80673171  0.48589153     0.20200
C593        C  0.67246300  0.81418959  0.48991703    -0.54600
C594        C  0.64338642  0.82905864  0.49022145     0.09400
C595        C  0.64754147  0.76844336  0.51270490    -0.54100
C596        C  0.61908008  0.78309711  0.51265394     0.10000
H597        H  0.65922948  0.76082871  0.43452302     0.14500
H598        H  0.59175949  0.81827293  0.48587463     0.00200
H599        H  0.69438804  0.82678334  0.49273395     0.14800
H600        H  0.65425371  0.75202211  0.53108342     0.14600
C601        C  0.71908023  0.70283934  0.48622257    -0.09300
C602        C  0.75038527  0.71251735  0.49129596     0.06900
C603        C  0.75556117  0.74531643  0.49417664    -0.03100
C604        C  0.72985016  0.76661687  0.49146668    -0.07500
C605        C  0.69879898  0.75618364  0.48592539     0.06000
C606        C  0.69409609  0.72350825  0.48284674    -0.02500
Br607      Br  0.65386553  0.70389001  0.47502686    -0.02200
H608        H  0.71373948  0.67809637  0.48459286     0.09900
H609        H  0.73431889  0.79132112  0.49442286     0.08000
Br610      Br  0.79547246  0.76364674  0.50381336    -0.02700
C611        C  0.54337299  0.77552716  0.55975227    -0.09300
C612        C  0.55368954  0.78293011  0.59037573     0.06900
C613        C  0.58607904  0.78802738  0.59565670    -0.03100
C614        C  0.60719340  0.78697386  0.57015957    -0.07500
C615        C  0.59658057  0.78075254  0.53933485     0.06000
C616        C  0.56453648  0.77413814  0.53442999    -0.02500
Br617      Br  0.54881833  0.76148618  0.49407940    -0.02200
H618        H  0.51864240  0.77083268  0.55548306     0.09900
H619        H  0.63185451  0.79214046  0.57424775     0.08000
Br620      Br  0.60243170  0.79901306  0.63643231    -0.02700
C621        C  0.49363092  0.76168541  0.72250164    -0.09300
C622        C  0.49808426  0.75195776  0.69082784     0.06900
C623        C  0.49983841  0.71933686  0.68477899    -0.03100
C624        C  0.49674071  0.69811654  0.70915038    -0.07500
C625        C  0.49333762  0.70718767  0.74103922     0.06000
C626        C  0.49121670  0.73989856  0.74750110    -0.02500
Br627      Br  0.48289336  0.75773164  0.78830923    -0.02200
H628        H  0.49146205  0.78628080  0.72815888     0.09900
H629        H  0.49772392  0.67346311  0.70291619     0.08000
Br630      Br  0.50640222  0.70057606  0.64369995    -0.02700
C631        C  0.58585033  0.57217121  0.74694045    -0.09300
C632        C  0.59834893  0.56391023  0.77649236     0.06900
C633        C  0.58828670  0.58033354  0.80364764    -0.03100
C634        C  0.56391702  0.60224890  0.80153511    -0.07500
C635        C  0.55018807  0.60930374  0.77239476     0.06000
C636        C  0.56208432  0.59502476  0.74463864    -0.02500
Br637      Br  0.54556914  0.60440204  0.70349458    -0.02200
H638        H  0.59392231  0.56013429  0.72576492     0.09900
H639        H  0.55584944  0.61417660  0.82278569     0.08000
Br640      Br  0.60871340  0.57617895  0.84361562    -0.02700
C641        C  0.76592301  0.58149950  0.53675797    -0.09300
C642        C  0.77587754  0.61134571  0.54617847     0.06900
C643        C  0.78437774  0.61654446  0.57792689    -0.03100
C644        C  0.78235500  0.59209628  0.59975349    -0.07500
C645        C  0.77259873  0.56211813  0.59028994     0.06000
C646        C  0.76419561  0.55698088  0.55846137    -0.02500
Br647      Br  0.74931396  0.51735191  0.54341448    -0.02200
H648        H  0.75972807  0.57719091  0.51227794     0.09900
H649        H  0.78956395  0.59618342  0.62397475     0.08000
Br650      Br  0.80175421  0.65559763  0.59186111    -0.02700
C651        C  0.75125332  0.50711934  0.72334754    -0.09300
C652        C  0.74050284  0.51002551  0.69193606     0.06900
C653        C  0.70750703  0.51184062  0.68701389    -0.03100
C654        C  0.68687039  0.51074539  0.71233298    -0.07500
C655        C  0.69695236  0.50806369  0.74392662     0.06000
C656        C  0.73005923  0.50586851  0.74920916    -0.02500
Br657      Br  0.74925183  0.49925129  0.78953034    -0.02200
H658        H  0.77618258  0.50497074  0.72813433     0.09900
H659        H  0.66185903  0.51198840  0.70702860     0.08000
Br660      Br  0.68748389  0.51527586  0.64625710    -0.02700
C661        C  0.74970003  0.41199681  0.55959371    -0.09300
C662        C  0.77969645  0.39946428  0.55284725     0.06900
C663        C  0.80613451  0.41142930  0.56867611    -0.03100
C664        C  0.80277291  0.43721172  0.58879577    -0.07500
C665        C  0.77304085  0.45074745  0.59451708     0.06000
C666        C  0.74612519  0.43723839  0.58059073    -0.02500
Br667      Br  0.70430282  0.45314397  0.58777907    -0.02200
H668        H  0.72908781  0.40264856  0.54785430     0.09900
H669        H  0.82349345  0.44646936  0.60041970     0.08000
Br670      Br  0.84675110  0.39186208  0.56579826    -0.02700
C671        C  0.78224925  0.41887771  0.39196369    -0.09300
C672        C  0.77797299  0.45000773  0.40222989     0.06900
C673        C  0.77364053  0.45598187  0.43483080    -0.03100
C674        C  0.77421580  0.43128374  0.45626530    -0.07500
C675        C  0.77887613  0.40035123  0.44607797     0.06000
C676        C  0.78289918  0.39412799  0.41354297    -0.02500
Br677      Br  0.79200660  0.35288895  0.39749966    -0.02200
H678        H  0.78611423  0.41386713  0.36711556     0.09900
H679        H  0.77090872  0.43628839  0.48121365     0.08000
Br680      Br  0.76521306  0.49679803  0.45201845    -0.02700
C681        C  0.80751655  0.57634131  0.40233573    -0.09300
C682        C  0.77892865  0.56049687  0.39865679     0.06900
C683        C  0.75175136  0.57153677  0.41462235    -0.03100
C684        C  0.75399438  0.59707730  0.43523300    -0.07500
C685        C  0.78282723  0.61223888  0.43958018     0.06000
C686        C  0.80946125  0.60243047  0.42219239    -0.02500
Br687      Br  0.84825400  0.62504090  0.42317849    -0.02200
H688        H  0.82827871  0.56866187  0.38933343     0.09900
H689        H  0.73340144  0.60460328  0.44859001     0.08000
Br690      Br  0.71157543  0.55166889  0.41089845    -0.02700
C691        C  0.56508853  0.81416059  0.39141818    -0.09300
C692        C  0.55044145  0.78579621  0.38401678     0.06900
C693        C  0.56188070  0.75786271  0.39754036    -0.03100
C694        C  0.58642925  0.75910059  0.41968821    -0.07500
C695        C  0.59990088  0.78783822  0.42834031     0.06000
C696        C  0.58991686  0.81529708  0.41295260    -0.02500
Br697      Br  0.61042989  0.85463040  0.41878870    -0.02200
H698        H  0.55713422  0.83562259  0.38033804     0.09900
H699        H  0.59407434  0.73777829  0.43121610     0.08000
Br700      Br  0.54301412  0.71806528  0.38877536    -0.02700
C701        C  0.42377192  0.78078137  0.44568129    -0.09300
C702        C  0.39250324  0.78754098  0.43754307     0.06900
C703        C  0.38466559  0.79168490  0.40544823    -0.03100
C704        C  0.40839538  0.79012275  0.38232135    -0.07500
C705        C  0.44001247  0.78445979  0.39064020     0.06000
C706        C  0.44732456  0.77887841  0.42264809    -0.02500
Br707      Br  0.48842954  0.76681633  0.43662874    -0.02200
H708        H  0.42990254  0.77678887  0.47020181     0.09900
H709        H  0.40231458  0.79466591  0.35790880     0.08000
Br710      Br  0.34265277  0.80219475  0.39216362    -0.02700
C711        C  0.41511033  0.76175687  0.54788468    -0.09300
C712        C  0.39783789  0.78972747  0.54487834     0.06900
C713        C  0.40469139  0.81520587  0.56486125    -0.03100
C714        C  0.42909899  0.81279195  0.58675501    -0.07500
C715        C  0.44645544  0.78496547  0.58972773     0.06000
C716        C  0.43931754  0.75918875  0.57020690    -0.02500
Br717      Br  0.46268334  0.72070460  0.57209022    -0.02200
H718        H  0.40992850  0.74200939  0.53260893     0.09900
H719        H  0.43421783  0.83260568  0.60197022     0.08000
Br720      Br  0.38010594  0.85290932  0.56515348    -0.02700
C721        C  0.40954445  0.61341287  0.78025112    -0.09300
C722        C  0.44007913  0.60592213  0.76938672     0.06900
C723        C  0.44689284  0.57486205  0.76008960    -0.03100
C724        C  0.42391050  0.55190367  0.76244119    -0.07500
C725        C  0.39368414  0.55917059  0.77352354     0.06000
C726        C  0.38635341  0.59022761  0.78248997    -0.02500
Br727      Br  0.34622921  0.60132188  0.80065902    -0.02200
H728        H  0.40415353  0.63699955  0.78825909     0.09900
H729        H  0.42975103  0.52808827  0.75564790     0.08000
Br730      Br  0.48668951  0.56202731  0.74310868    -0.02700
C731        C  0.44360331  0.42306238  0.75001527    -0.09300
C732        C  0.44455592  0.40289705  0.77602644     0.06900
C733        C  0.42204880  0.40639118  0.80032310    -0.03100
C734        C  0.39949110  0.43031346  0.79876611    -0.07500
C735        C  0.39868836  0.45072849  0.77303041     0.06000
C736        C  0.42074460  0.44689065  0.74831106    -0.02500
Br737      Br  0.42143897  0.47422588  0.71259940    -0.02200
H738        H  0.46105247  0.42065247  0.73137440     0.09900
H739        H  0.38251192  0.43308552  0.81780386     0.08000
Br740      Br  0.42087368  0.37896204  0.83597293    -0.02700
C741        C  0.54252316  0.43523358  0.76646251    -0.09300
C742        C  0.55240738  0.40446568  0.77290062     0.06900
C743        C  0.58474048  0.39879748  0.77876095    -0.03100
C744        C  0.60618830  0.42363751  0.77850835    -0.07500
C745        C  0.59608758  0.45450455  0.77297464     0.06000
C746        C  0.56393963  0.46005341  0.76636991    -0.02500
Br747      Br  0.54800107  0.50065948  0.75574248    -0.02200
H748        H  0.51781676  0.44008006  0.76183646     0.09900
H749        H  0.63075476  0.41898644  0.78396263     0.08000
Br750      Br  0.60073419  0.35853420  0.79055300    -0.02700
C751        C  0.20140036  0.43108079  0.39548726    -0.09300
C752        C  0.22395986  0.45471469  0.39820936     0.06900
C753        C  0.24643549  0.45344352  0.42260034    -0.03100
C754        C  0.24538077  0.42908912  0.44458444    -0.07500
C755        C  0.22245299  0.40570373  0.44207879     0.06000
C756        C  0.20070784  0.40648548  0.41704666    -0.02500
Br757      Br  0.16991769  0.37431519  0.41123739    -0.02200
H758        H  0.18429671  0.43178410  0.37648794     0.09900
H759        H  0.26219177  0.42857072  0.46383660     0.08000
Br760      Br  0.27851608  0.48456346  0.42687616    -0.02700
C761        C  0.27328899  0.25169230  0.49681465    -0.09300
C762        C  0.30479954  0.26208543  0.49695411     0.06900
C763        C  0.30993690  0.29477330  0.49600269    -0.03100
C764        C  0.28460432  0.31549586  0.49587461    -0.07500
C765        C  0.25289858  0.30568694  0.49564791     0.06000
C766        C  0.24748102  0.27282035  0.49598964    -0.02500
Br767      Br  0.20692108  0.25340721  0.49570817    -0.02200
H768        H  0.26823679  0.22699473  0.49719877     0.09900
H769        H  0.28997275  0.34027196  0.49570355     0.08000
Br770      Br  0.35101582  0.31398481  0.49450045    -0.02700
C771        C  0.43543151  0.20205662  0.40183839    -0.09300
C772        C  0.45165901  0.22977478  0.39575104     0.06900
C773        C  0.44347091  0.25720221  0.41256826    -0.03100
C774        C  0.41974637  0.25624060  0.43561271    -0.07500
C775        C  0.40462264  0.22804284  0.44273933     0.06000
C776        C  0.41202650  0.20103519  0.42495404    -0.02500
Br777      Br  0.38970417  0.16268797  0.42936211    -0.02200
H778        H  0.44105615  0.18099252  0.38853484     0.09900
H779        H  0.41385277  0.27731496  0.44880318     0.08000
Br780      Br  0.46556638  0.29566429  0.40710656    -0.02700
C781        C  0.51091677  0.31248139  0.27904777    -0.09300
C782        C  0.50746089  0.30364576  0.24716944     0.06900
C783        C  0.50590548  0.27088455  0.24055409    -0.03100
C784        C  0.50742962  0.24897468  0.26557847    -0.07500
C785        C  0.51076305  0.25854733  0.29736963     0.06000
C786        C  0.51318423  0.29111463  0.30340990    -0.02500
Br787      Br  0.51919690  0.30975513  0.34449703    -0.02200
H788        H  0.51212894  0.33708835  0.28535778     0.09900
H789        H  0.50540119  0.22439552  0.25988953     0.08000
Br790      Br  0.50077290  0.25287559  0.19937472    -0.02700
C791        C  0.31028137  0.50665264  0.27879997    -0.09300
C792        C  0.30150866  0.50350987  0.24688001     0.06900
C793        C  0.26884435  0.49904286  0.24052159    -0.03100
C794        C  0.24649479  0.50065933  0.26547264    -0.07500
C795        C  0.25579263  0.50535508  0.29714510     0.06000
C796        C  0.28858575  0.50768093  0.30331745    -0.02500
Br797      Br  0.30693145  0.51180526  0.34484641    -0.02200
H798        H  0.33502505  0.50839247  0.28501839     0.09900
H799        H  0.22190020  0.49718182  0.25991262     0.08000
Br800      Br  0.25238626  0.48662922  0.20028823    -0.02700
C801        C  0.42177562  0.39735503  0.21026791    -0.09300
C802        C  0.45206042  0.40542154  0.22082330     0.06900
C803        C  0.45789038  0.43667751  0.22978120    -0.03100
C804        C  0.43393416  0.45927288  0.22770185    -0.07500
C805        C  0.40380700  0.45128206  0.21698007     0.06000
C806        C  0.39775140  0.42003212  0.20814243    -0.02500
Br807      Br  0.35804117  0.40791233  0.19030360    -0.02200
H808        H  0.41718625  0.37364227  0.20239722     0.09900
H809        H  0.43884547  0.48323298  0.23451437     0.08000
Br810      Br  0.49778155  0.44972018  0.24593733    -0.02700
C811        C  0.52547638  0.25567731  0.72789126    -0.09300
C812        C  0.49716463  0.24729561  0.71263107     0.06900
C813        C  0.46885053  0.25869654  0.72640282    -0.03100
C814        C  0.46968735  0.28426741  0.74733629    -0.07500
C815        C  0.49855565  0.29774381  0.75666474     0.06000
C816        C  0.52614901  0.27988760  0.75045557    -0.02500
Br817      Br  0.56464307  0.28559066  0.77336789    -0.02200
H818        H  0.54735379  0.24372270  0.72207841     0.09900
H819        H  0.44752105  0.29348168  0.75622900     0.08000
Br820      Br  0.42872777  0.23933687  0.71927500    -0.02700
C821        C  0.45646648  0.24487734  0.57516924    -0.09300
C822        C  0.44831644  0.23083255  0.60388531     0.06900
C823        C  0.41797151  0.21799994  0.60743101    -0.03100
C824        C  0.39656291  0.21890550  0.58229063    -0.07500
C825        C  0.40492414  0.23229162  0.55332142     0.06000
C826        C  0.43492247  0.24595797  0.55006577    -0.02500
Br827      Br  0.44727644  0.26701555  0.51226765    -0.02200
H828        H  0.47977305  0.25472882  0.57217953     0.09900
H829        H  0.37359356  0.20825622  0.58503080     0.08000
Br830      Br  0.40544606  0.19683227  0.64520488    -0.02700
C831        C  0.69362563  0.28315277  0.50469962    -0.09300
C832        C  0.70225684  0.25125404  0.50402565     0.06900
C833        C  0.73495001  0.24402317  0.50022237    -0.03100
C834        C  0.75728081  0.26844489  0.49866540    -0.07500
C835        C  0.74796800  0.30018818  0.49965675     0.06000
C836        C  0.71524845  0.30703311  0.50194572    -0.02500
Br837      Br  0.69695097  0.34862659  0.50142561    -0.02200
H838        H  0.66895796  0.28985593  0.50678835     0.09900
H839        H  0.78194289  0.26230066  0.49617346     0.08000
Br840      Br  0.75206810  0.20272187  0.49504588    -0.02700
C841        C  0.61076590  0.21371503  0.42231381    -0.09300
C842        C  0.60054530  0.22347203  0.45243937     0.06900
C843        C  0.56898608  0.23333352  0.45665255    -0.03100
C844        C  0.54854213  0.23390396  0.43079513    -0.07500
C845        C  0.55882612  0.22422914  0.40073422     0.06000
C846        C  0.59004234  0.21353617  0.39664968    -0.02500
Br847      Br  0.60441715  0.19549511  0.35751026    -0.02200
H848        H  0.63470698  0.20516767  0.41900128     0.09900
H849        H  0.52434061  0.24166828  0.43421065     0.08000
Br850      Br  0.55245196  0.24676369  0.49673546    -0.02700
C851        C  0.59631926  0.19520993  0.57870412    -0.09300
C852        C  0.60369786  0.22362190  0.56418893     0.06900
C853        C  0.58879125  0.25139496  0.57472779    -0.03100
C854        C  0.56524889  0.24994889  0.59800631    -0.07500
C855        C  0.55685584  0.22119543  0.61138828     0.06000
C856        C  0.57353263  0.19390708  0.60249011    -0.02500
Br857      Br  0.56752195  0.15464204  0.62311574    -0.02200
H858        H  0.60834115  0.17386185  0.57142486     0.09900
H859        H  0.55279672  0.27114831  0.60499136     0.08000
Br860      Br  0.59815008  0.29133061  0.55664682    -0.02700
C861        C  0.27616187  0.50302010  0.68955864    -0.09300
C862        C  0.24440969  0.50197493  0.69938095     0.06900
C863        C  0.23862132  0.50030790  0.73250353    -0.03100
C864        C  0.26427731  0.49998575  0.75393873    -0.07500
C865        C  0.29585667  0.50136368  0.74338031     0.06000
C866        C  0.30121345  0.50266950  0.71036559    -0.02500
Br867      Br  0.34218823  0.50463347  0.69046539    -0.02200
H868        H  0.28182223  0.50441927  0.66459689     0.09900
H869        H  0.25919091  0.49897078  0.77892942     0.08000
Br870      Br  0.19762097  0.49908149  0.75146517    -0.02700
C871        C  0.20784684  0.42281397  0.60351431    -0.09300
C872        C  0.21629760  0.45350454  0.59544656     0.06900
C873        C  0.22561206  0.45989616  0.56418669    -0.03100
C874        C  0.22671776  0.43579344  0.54179146    -0.07500
C875        C  0.21831178  0.40522061  0.54980746     0.06000
C876        C  0.20834126  0.39878969  0.58085202    -0.02500
Br877      Br  0.19219965  0.35861163  0.59254444    -0.02200
H878        H  0.19976996  0.41778314  0.62725239     0.09900
H879        H  0.23391306  0.44101288  0.51781419     0.08000
Br880      Br  0.23778437  0.50071151  0.55059831    -0.02700
C881        C  0.28067859  0.70089314  0.49846157    -0.09300
C882        C  0.24837335  0.70843221  0.50081008     0.06900
C883        C  0.24029183  0.74077475  0.50388568    -0.03100
C884        C  0.26402964  0.76387353  0.50158428    -0.07500
C885        C  0.29609476  0.75569110  0.49760378     0.06000
C886        C  0.30400339  0.72332351  0.49679806    -0.02500
Br887      Br  0.34643986  0.70656521  0.49365941    -0.02200
H888        H  0.28815066  0.67655768  0.49765115     0.09900
H889        H  0.25727648  0.78823322  0.50385941     0.08000
Br890      Br  0.19919895  0.75611001  0.51518269    -0.02700
C891        C  0.19435899  0.60342830  0.42660103    -0.09300
C892        C  0.22205714  0.60853128  0.44383826     0.06900
C893        C  0.24977217  0.59202271  0.43560303    -0.03100
C894        C  0.24899939  0.56953365  0.41134821    -0.07500
C895        C  0.22089886  0.56358087  0.39491530     0.06000
C896        C  0.19377400  0.58156286  0.40193641    -0.02500
Br897      Br  0.15603164  0.57861237  0.37735009    -0.02200
H898        H  0.17313034  0.61665652  0.43226696     0.09900
H899        H  0.27012042  0.55608700  0.40587146     0.08000
Br900      Br  0.28852650  0.59827761  0.45796127    -0.02700
C901        C  0.18989164  0.60210637  0.56989125    -0.09300
C902        C  0.21906593  0.60845709  0.55573008     0.06900
C903        C  0.24631118  0.59278888  0.56650506    -0.03100
C904        C  0.24372299  0.57002847  0.59013233    -0.07500
C905        C  0.21418202  0.56257005  0.60312552     0.06000
C906        C  0.18739301  0.57979786  0.59373300    -0.02500
Br907      Br  0.14739576  0.57558153  0.61427169    -0.02200
H908        H  0.16891104  0.61468489  0.56241541     0.09900
H909        H  0.26459070  0.55715116  0.59739094     0.08000
Br910      Br  0.28696553  0.60007576  0.54815806    -0.02700
C911        C  0.51929479  0.73329798  0.24351856    -0.09300
C912        C  0.49157803  0.71655861  0.23679411     0.06900
C913        C  0.46262882  0.73045849  0.24663663    -0.03100
C914        C  0.46268161  0.75389512  0.26995265    -0.07500
C915        C  0.49113024  0.76552410  0.28230419     0.06000
C916        C  0.51907804  0.75829541  0.26516650    -0.02500
Br917      Br  0.55732612  0.78187791  0.26945427    -0.02200
H918        H  0.54145059  0.72640539  0.23261465     0.09900
H919        H  0.44025670  0.76277062  0.27856092     0.08000
Br920      Br  0.42255351  0.72121396  0.22756259    -0.02700
C921        C  0.40202766  0.57972436  0.19024941    -0.09300
C922        C  0.40032884  0.55995882  0.21642111     0.06900
C923        C  0.41975660  0.56561924  0.24275789    -0.03100
C924        C  0.44161181  0.59011331  0.24197124    -0.07500
C925        C  0.44377713  0.60947842  0.21540182     0.06000
C926        C  0.42311726  0.60466824  0.18979462    -0.02500
Br927      Br  0.42148757  0.63226275  0.15430597    -0.02200
H928        H  0.38663997  0.57587445  0.17017793     0.09900
H929        H  0.45725333  0.59375209  0.26186049     0.08000
Br930      Br  0.41777210  0.53987359  0.27964834    -0.02700
C931        C  0.69135986  0.50776632  0.28326788    -0.09300
C932        C  0.70034908  0.51075227  0.25140531     0.06900
C933        C  0.73334600  0.51135946  0.24479533    -0.03100
C934        C  0.75544352  0.50802159  0.26969173    -0.07500
C935        C  0.74570247  0.50401686  0.30132194     0.06000
C936        C  0.71280549  0.50364092  0.30746659    -0.02500
Br937      Br  0.69381799  0.49790405  0.34846393    -0.02200
H938        H  0.66653139  0.50774508  0.28958555     0.09900
H939        H  0.78028637  0.50930406  0.26409977     0.08000
Br940      Br  0.75124468  0.51854711  0.20394099    -0.02700
C941        C  0.56997151  0.41564525  0.24607509    -0.09300
C942        C  0.56139144  0.40316642  0.21654686     0.06900
C943        C  0.57549306  0.41508380  0.18904497    -0.09100
C944        C  0.59548449  0.44071449  0.19093957    -0.07500
C945        C  0.60277772  0.45427193  0.22012213     0.06000
C946        C  0.59055717  0.44113308  0.24805438    -0.02500
Br947      Br  0.59911961  0.45869686  0.28898799    -0.02200
H948        H  0.55942745  0.40657607  0.26746653     0.09900
H949        H  0.60583875  0.44981896  0.16946562     0.08000
Br950      Br  0.57073789  0.39573365  0.14858960    -0.02700
C951        C  0.60626993  0.59553422  0.21790594    -0.09300
C952        C  0.59728003  0.56458150  0.22424306     0.06900
C953        C  0.56509858  0.55838112  0.22996401    -0.03100
C954        C  0.54267655  0.58247371  0.22805779    -0.07500
C955        C  0.55145321  0.61309682  0.22050112     0.06000
C956        C  0.58369137  0.61967185  0.21574529    -0.02500
Br957      Br  0.59780595  0.66020290  0.20285173    -0.02200
H958        H  0.63080293  0.60068051  0.21298622     0.09900
H959        H  0.51801532  0.57712567  0.23206104     0.08000
Br960      Br  0.55004245  0.51781861  0.24123533    -0.02700
loop_ 
_geom_bond_atom_site_label_1 
_geom_bond_atom_site_label_2 
_geom_bond_distance 
_geom_bond_site_symmetry_2 
_ccdc_geom_bond_type 
O1            C4   1.263       .  A
O1           Cd6   2.406       .  S
C2           O11   1.268       .  A
C2            O7   1.262       .  A
C2           C17   1.466       .  S
O3            C9   1.269       .  A
O3           Cd6   2.555       .  S
C4           O12   1.268       .  A
C4           C41   1.461       .  S
C5           O10   1.265       .  A
C5            O8   1.265       .  A
C5          C161   1.462   1_556  S
Cd6          O13   2.374       .  S
Cd6          O12   2.501       .  S
Cd6          O11   2.515       .  S
Cd6           O7   2.415       .  S
Cd6          O10   2.460       .  S
Cd6           O8   2.453       .  S
C9           O13   1.258       .  A
C9          C462   1.477       .  S
O14          C17   1.263       .  A
O14         Cd19   2.416       .  S
C15          O24   1.268       .  A
C15          O20   1.262       .  A
C15          C30   1.466       .  S
O16          C22   1.269       .  A
O16         Cd19   2.579       .  S
C17          O25   1.269       .  A
C18          O23   1.265       .  A
C18          O21   1.266       .  A
C18         C174   1.467   1_556  S
Cd19         O26   2.374       .  S
Cd19         O25   2.515       .  S
Cd19         O24   2.519       .  S
Cd19         O20   2.416       .  S
Cd19         O23   2.463       .  S
Cd19         O21   2.463       .  S
C22          O26   1.258       .  A
C22         C474   1.481       .  S
O27          C30   1.263       .  A
O27         Cd32   2.412       .  S
C28          O37   1.268       .  A
C28          O33   1.261       .  A
C28          C43   1.466       .  S
O29          C35   1.270       .  A
O29         Cd32   2.585       .  S
C30          O38   1.269       .  A
C31          O36   1.265       .  A
C31          O34   1.266       .  A
C31         C187   1.468   1_556  S
Cd32         O39   2.367       .  S
Cd32         O38   2.512       .  S
Cd32         O37   2.524       .  S
Cd32         O33   2.415       .  S
Cd32         O36   2.469       .  S
Cd32         O34   2.470       .  S
C35          O39   1.257       .  A
C35         C570   1.483       .  S
O40          C43   1.260       .  A
O40         Cd45   2.416       .  S
C41          O50   1.269       .  A
C41          O46   1.264       .  A
O42          C48   1.270       .  A
O42         Cd45   2.591       .  S
C43          O51   1.268       .  A
C44          O49   1.266       .  A
C44          O47   1.266       .  A
C44         C200   1.471   1_556  S
Cd45         O52   2.366       .  S
Cd45         O51   2.528       .  S
Cd45         O50   2.493       .  S
Cd45         O46   2.402       .  S
Cd45         O49   2.472       .  S
Cd45         O47   2.474       .  S
C48          O52   1.256       .  A
C48         C546   1.482       .  S
O53          C56   1.262       .  A
O53         Cd58   2.417       .  S
C54          O63   1.269       .  A
C54          O59   1.262       .  A
C54          C95   1.469       .  S
O55          C61   1.257       .  A
O55         Cd58   2.382       .  S
C56          O64   1.269       .  A
C56          C69   1.468       .  S
C57          O62   1.266       .  A
C57          O60   1.265       .  A
C57         C252   1.472   1_565  S
Cd58         O65   2.594       .  S
Cd58         O64   2.528       .  S
Cd58         O63   2.521       .  S
Cd58         O59   2.420       .  S
Cd58         O62   2.484       .  S
Cd58         O60   2.473       .  S
C61          O65   1.270       .  A
C61         C498   1.486       .  S
O66          C69   1.264       .  A
O66         Cd71   2.416       .  S
C67          O76   1.268       .  A
C67          O72   1.261       .  A
C67          C80   1.472       .  S
O68          C74   1.265       .  A
O68         Cd71   2.476       .  S
C69          O77   1.269       .  A
C70          O75   1.257       .  A
C70          O73   1.270       .  A
C70         C486   1.488       .  S
Cd71         O78   2.482       .  S
Cd71         O77   2.517       .  S
Cd71         O76   2.540       .  S
Cd71         O72   2.434       .  S
Cd71         O75   2.365       .  S
Cd71         O73   2.615       .  S
C74          O78   1.265       .  A
C74         C239   1.472   1_565  S
O79          C82   1.263       .  A
O79         Cd84   2.411       .  S
C80          O89   1.270       .  A
C80          O85   1.262       .  A
O81          C87   1.271       .  A
O81         Cd84   2.594       .  S
C82          O90   1.268       .  A
C82          C93   1.464       .  S
C83          O88   1.265       .  A
C83          O86   1.266       .  A
C83         C213   1.471   1_565  S
Cd84         O91   2.367       .  S
Cd84         O90   2.512       .  S
Cd84         O89   2.535       .  S
Cd84         O85   2.424       .  S
Cd84         O88   2.471       .  S
Cd84         O86   2.485       .  S
C87          O91   1.258       .  A
C87         C558   1.485       .  S
O92          C95   1.261       .  A
O92         Cd97   2.427       .  S
C93         O102   1.269       .  A
C93          O98   1.263       .  A
O94         C100   1.269       .  A
O94         Cd97   2.592       .  S
C95         O103   1.268       .  A
C96         O101   1.265       .  A
C96          O99   1.266       .  A
C96         C226   1.469   1_565  S
Cd97        O104   2.364       .  S
Cd97        O103   2.528       .  S
Cd97        O102   2.510       .  S
Cd97         O98   2.408       .  S
Cd97        O101   2.472       .  S
Cd97         O99   2.467       .  S
C100        O104   1.257       .  A
C100        C594   1.483       .  S
O105        C108   1.262       .  A
O105       Cd110   2.422       .  S
C106        O115   1.269       .  A
C106        O111   1.263       .  A
C106        C119   1.466       .  S
O107        C113   1.270       .  A
O107       Cd110   2.583       .  S
C108        O116   1.269       .  A
C108        C132   1.470       .  S
C109        O114   1.265       .  A
C109        O112   1.265       .  A
C109        C295   1.467   1_655  S
Cd110       O117   2.367       .  S
Cd110       O116   2.531       .  S
Cd110       O115   2.523       .  S
Cd110       O111   2.401       .  S
Cd110       O114   2.459       .  S
Cd110       O112   2.471       .  S
C113        O117   1.257       .  A
C113        C534   1.481       .  S
O118        C121   1.260       .  A
O118       Cd123   2.430       .  S
C119        O128   1.271       .  A
C119        O124   1.262       .  A
O120        C126   1.266       .  A
O120       Cd123   2.461       .  S
C121        O129   1.268       .  A
C121        C145   1.471       .  S
C122        O127   1.267       .  A
C122        O125   1.256       .  A
C122        C582   1.477       .  S
Cd123       O130   2.447       .  S
Cd123       O129   2.542       .  S
Cd123       O128   2.525       .  S
Cd123       O124   2.394       .  S
Cd123       O127   2.592       .  S
Cd123       O125   2.351       .  S
C126        O130   1.264       .  A
C126        C304   1.461   1_655  S
O131        C134   1.265       .  A
O131       Cd136   2.418       .  S
C132        O141   1.267       .  A
C132        O137   1.259       .  A
O133        C139   1.266       .  A
O133       Cd136   2.580       .  S
C134        O142   1.270       .  A
C134        C147   1.468       .  S
C135        O140   1.264       .  A
C135        O138   1.263       .  A
C135        C282   1.464   1_655  S
Cd136       O143   2.386       .  S
Cd136       O142   2.506       .  S
Cd136       O141   2.545       .  S
Cd136       O137   2.434       .  S
Cd136       O140   2.470       .  S
Cd136       O138   2.464       .  S
C139        O143   1.258       .  A
C139        C522   1.476       .  S
O144        C147   1.263       .  A
O144       Cd149   2.426       .  S
C145        O154   1.268       .  A
C145        O150   1.263       .  A
O146        C152   1.266       .  A
O146       Cd149   2.492       .  S
C147        O155   1.269       .  A
C148        O153   1.270       .  A
C148        O151   1.257       .  A
C148        C510   1.486       .  S
Cd149       O156   2.473       .  S
Cd149       O155   2.514       .  S
Cd149       O154   2.530       .  S
Cd149       O150   2.431       .  S
Cd149       O153   2.601       .  S
Cd149       O151   2.367       .  S
C152        O156   1.265       .  A
C152        C265   1.474   1_655  S
O157        C160   1.263       .  A
O157       Cd162   2.417       .  S
C158        O167   1.267       .  A
C158        O163   1.260       .  A
C158        C199   1.466       .  S
O159        C165   1.268       .  A
O159       Cd162   2.570       .  S
C160        O168   1.269       .  A
C160        C171   1.465       .  S
C161        O166   1.266       .  A
C161        O164   1.265       .  A
Cd162       O169   2.360       .  S
Cd162       O168   2.503       .  S
Cd162       O167   2.528       .  S
Cd162       O163   2.417       .  S
Cd162       O166   2.459       .  S
Cd162       O164   2.444       .  S
C165        O169   1.257       .  A
C165        C402   1.476       .  S
O170        C173   1.263       .  A
O170       Cd175   2.420       .  S
C171        O180   1.267       .  A
C171        O176   1.263       .  A
O172        C178   1.258       .  A
O172       Cd175   2.379       .  S
C173        O181   1.268       .  A
C173        C184   1.467       .  S
C174        O179   1.265       .  A
C174        O177   1.264       .  A
Cd175       O182   2.568       .  S
Cd175       O181   2.515       .  S
Cd175       O180   2.507       .  S
Cd175       O176   2.426       .  S
Cd175       O179   2.475       .  S
Cd175       O177   2.468       .  S
C178        O182   1.270       .  A
C178        C390   1.482       .  S
O183        C186   1.261       .  A
O183       Cd188   2.388       .  S
C184        O193   1.269       .  A
C184        O189   1.262       .  A
O185        C191   1.270       .  A
O185       Cd188   2.567       .  S
C186        O194   1.269       .  A
C186        C197   1.462       .  S
C187        O192   1.266       .  A
C187        O190   1.265       .  A
Cd188       O195   2.365       .  S
Cd188       O194   2.518       .  S
Cd188       O193   2.516       .  S
Cd188       O189   2.414       .  S
Cd188       O192   2.468       .  S
Cd188       O190   2.464       .  S
C191        O195   1.257       .  A
C191        C330   1.479       .  S
O196        C199   1.263       .  A
O196       Cd201   2.408       .  S
C197        O206   1.268       .  A
C197        O202   1.262       .  A
O198        C204   1.270       .  A
O198       Cd201   2.584       .  S
C199        O207   1.269       .  A
C200        O205   1.265       .  A
C200        O203   1.266       .  A
Cd201       O208   2.369       .  S
Cd201       O207   2.519       .  S
Cd201       O206   2.518       .  S
Cd201       O202   2.393       .  S
Cd201       O205   2.469       .  S
Cd201       O203   2.474       .  S
C204        O208   1.256       .  A
C204        C318   1.483       .  S
O209        C212   1.263       .  A
O209       Cd214   2.414       .  S
C210        O219   1.268       .  A
C210        O215   1.261       .  A
C210        C225   1.466       .  S
O211        C217   1.269       .  A
O211       Cd214   2.587       .  S
C212        O220   1.269       .  A
C212        C236   1.464       .  S
C213        O218   1.265       .  A
C213        O216   1.267       .  A
Cd214       O221   2.388       .  S
Cd214       O220   2.504       .  S
Cd214       O219   2.524       .  S
Cd214       O215   2.419       .  S
Cd214       O218   2.466       .  S
Cd214       O216   2.481       .  S
C217        O221   1.257       .  A
C217        C378   1.484       .  S
O222        C225   1.263       .  A
O222       Cd227   2.411       .  S
C223        O232   1.268       .  A
C223        O228   1.262       .  A
C223        C251   1.468       .  S
O224        C230   1.257       .  A
O224       Cd227   2.357       .  S
C225        O233   1.269       .  A
C226        O231   1.265       .  A
C226        O229   1.265       .  A
Cd227       O234   2.574       .  S
Cd227       O233   2.515       .  S
Cd227       O232   2.527       .  S
Cd227       O228   2.414       .  S
Cd227       O231   2.472       .  S
Cd227       O229   2.468       .  S
C230        O234   1.270       .  A
C230        C366   1.478       .  S
O235        C238   1.262       .  A
O235       Cd240   2.421       .  S
C236        O245   1.268       .  A
C236        O241   1.264       .  A
O237        C243   1.271       .  A
O237       Cd240   2.578       .  S
C238        O246   1.268       .  A
C238        C249   1.470       .  S
C239        O244   1.265       .  A
C239        O242   1.265       .  A
Cd240       O247   2.393       .  S
Cd240       O246   2.531       .  S
Cd240       O245   2.495       .  S
Cd240       O241   2.413       .  S
Cd240       O244   2.481       .  S
Cd240       O242   2.483       .  S
C243        O247   1.257       .  A
C243        C426   1.484       .  S
O248        C251   1.261       .  A
O248       Cd253   2.417       .  S
C249        O258   1.270       .  A
C249        O254   1.263       .  A
O250        C256   1.269       .  A
O250       Cd253   2.600       .  S
C251        O259   1.268       .  A
C252        O257   1.265       .  A
C252        O255   1.265       .  A
Cd253       O260   2.367       .  S
Cd253       O259   2.535       .  S
Cd253       O258   2.529       .  S
Cd253       O254   2.417       .  S
Cd253       O257   2.480       .  S
Cd253       O255   2.475       .  S
C256        O260   1.258       .  A
C256        C414   1.484       .  S
O261        C264   1.263       .  A
O261       Cd266   2.408       .  S
C262        O271   1.268       .  A
C262        O267   1.262       .  A
C262        C303   1.468       .  S
O263        C269   1.271       .  A
O263       Cd266   2.607       .  S
C264        O272   1.270       .  A
C264        C277   1.466       .  S
C265        O270   1.265       .  A
C265        O268   1.267       .  A
Cd266       O273   2.380       .  S
Cd266       O272   2.519       .  S
Cd266       O271   2.529       .  S
Cd266       O267   2.414       .  S
Cd266       O270   2.471       .  S
Cd266       O268   2.492       .  S
C269        O273   1.258       .  A
C269        C438   1.490       .  S
O274        C277   1.262       .  A
O274       Cd279   2.411       .  S
C275        O284   1.269       .  A
C275        O280   1.263       .  A
C275        C290   1.467       .  S
O276        C282   1.264       .  A
O276       Cd279   2.457       .  S
C277        O285   1.268       .  A
C278        O283   1.270       .  A
C278        O281   1.257       .  A
C278        C450   1.477       .  S
Cd279       O286   2.460       .  S
Cd279       O285   2.518       .  S
Cd279       O284   2.524       .  S
Cd279       O280   2.409       .  S
Cd279       O283   2.567       .  S
Cd279       O281   2.356       .  S
C282        O286   1.265       .  A
O287        C290   1.263       .  A
O287       Cd292   2.405       .  S
C288        O297   1.267       .  A
C288        O293   1.261       .  A
C288        C301   1.468       .  S
O289        C295   1.264       .  A
O289       Cd292   2.460       .  S
C290        O298   1.270       .  A
C291        O296   1.269       .  A
C291        O294   1.256       .  A
C291        C354   1.479       .  S
Cd292       O299   2.477       .  S
Cd292       O298   2.522       .  S
Cd292       O297   2.523       .  S
Cd292       O293   2.423       .  S
Cd292       O296   2.586       .  S
Cd292       O294   2.352       .  S
C295        O299   1.266       .  A
O300        C303   1.261       .  A
O300       Cd305   2.408       .  S
C301        O310   1.269       .  A
C301        O306   1.261       .  A
O302        C308   1.267       .  A
O302       Cd305   2.580       .  S
C303        O311   1.269       .  A
C304        O309   1.264       .  A
C304        O307   1.265       .  A
Cd305       O312   2.355       .  S
Cd305       O311   2.536       .  S
Cd305       O310   2.528       .  S
Cd305       O306   2.417       .  S
Cd305       O309   2.457       .  S
Cd305       O307   2.453       .  S
C308        O312   1.257       .  A
C308        C342   1.479       .  S
C313        C314   1.545       .  S
C313        C319   1.550       .  S
C313        C317   1.561       .  S
C313        C932   1.547       .  S
C314        H321   1.087       .  S
C314        C315   1.352       .  D
C315        C945   1.475       .  S
C315        C316   1.526       .  S
C316        C320   1.529       .  S
C316        C318   1.539       .  S
C316        H322   1.110       .  S
C317        H323   1.076       .  S
C317        C318   1.377       .  D
C319        H324   1.086       .  S
C319        C320   1.363       .  D
C320        C952   1.490       .  S
C325        C326   1.553       .  S
C325        C331   1.549       .  S
C325        C329   1.548       .  S
C325        C912   1.538       .  S
C326        H333   1.085       .  S
C326        C327   1.367       .  D
C327        C955   1.486       .  S
C327        C328   1.531       .  S
C328        C332   1.525       .  S
C328        C330   1.535       .  S
C328        H334   1.111       .  S
C329        H335   1.085       .  S
C329        C330   1.369       .  D
C331        H336   1.083       .  S
C331        C332   1.358       .  D
C332        C925   1.478       .  S
C337        C338   1.550       .  S
C337        C343   1.548       .  S
C337        C341   1.565       .  S
C337        C882   1.548       .  S
C338        H345   1.087       .  S
C338        C339   1.356       .  D
C339        C892   1.476       .  S
C339        C340   1.522       .  S
C340        C344   1.523       .  S
C340        C342   1.532       .  S
C340        H346   1.111       .  S
C341        H347   1.077       .  S
C341        C342   1.378       .  D
C343        H348   1.086       .  S
C343        C344   1.360       .  D
C344        C902   1.480       .  S
C349        C350   1.547       .  S
C349        C355   1.547       .  S
C349        C353   1.563       .  S
C349        C862   1.546       .  S
C350        H357   1.087       .  S
C350        C351   1.355       .  D
C351        C905   1.483       .  S
C351        C352   1.529       .  S
C352        C356   1.526       .  S
C352        C354   1.539       .  S
C352        H358   1.111       .  S
C353        H359   1.076       .  S
C353        C354   1.378       .  D
C355        H360   1.087       .  S
C355        C356   1.357       .  D
C356        C872   1.480       .  S
C361        C362   1.550       .  S
C361        C367   1.543       .  S
C361        C365   1.562       .  S
C361        C832   1.544       .  S
C362        H369   1.087       .  S
C362        C363   1.359       .  D
C363        C852   1.477       .  S
C363        C364   1.524       .  S
C364        C368   1.525       .  S
C364        C366   1.536       .  S
C364        H370   1.111       .  S
C365        H371   1.075       .  S
C365        C366   1.376       .  D
C367        H372   1.087       .  S
C367        C368   1.356       .  D
C368        C842   1.479       .  S
C373        C374   1.551       .  S
C373        C379   1.549       .  S
C373        C377   1.555       .  S
C373        C812   1.544       .  S
C374        H381   1.085       .  S
C374        C375   1.362       .  D
C375        C822   1.481       .  S
C375        C376   1.526       .  S
C376        C380   1.529       .  S
C376        C378   1.537       .  S
C376        H382   1.111       .  S
C377        H383   1.085       .  S
C377        C378   1.375       .  D
C379        H384   1.084       .  S
C379        C380   1.358       .  D
C380        C855   1.478       .  S
C385        C386   1.549       .  S
C385        C391   1.543       .  S
C385        C389   1.562       .  S
C385        C792   1.547       .  S
C386        H393   1.087       .  S
C386        C387   1.356       .  D
C387        C922   1.475       .  S
C387        C388   1.525       .  S
C388        C392   1.527       .  S
C388        C390   1.538       .  S
C388        H394   1.111       .  S
C389        H395   1.077       .  S
C389        C390   1.378       .  D
C391        H396   1.087       .  S
C391        C392   1.359       .  D
C392        C805   1.480       .  S
C397        C398   1.553       .  S
C397        C403   1.549       .  S
C397        C401   1.562       .  S
C397        C782   1.551       .  S
C398        H405   1.086       .  S
C398        C399   1.362       .  D
C399        C802   1.485       .  S
C399        C400   1.523       .  S
C400        C404   1.526       .  S
C400        C402   1.534       .  S
C400        H406   1.111       .  S
C401        H407   1.075       .  S
C401        C402   1.375       .  D
C403        H408   1.087       .  S
C403        C404   1.356       .  D
C404        C942   1.481       .  S
C409        C410   1.544       .  S
C409        C415   1.546       .  S
C409        C413   1.567       .  S
C409        C785   1.539       .  S
C410        H417   1.086       .  S
C410        C411   1.360       .  D
C411        C845   1.474       .  S
C411        C412   1.521       .  S
C412        C416   1.518       .  S
C412        C414   1.534       .  S
C412        H418   1.112       .  S
C413        H419   1.083       .  S
C413        C414   1.381       .  D
C415        H420   1.087       .  S
C415        C416   1.356       .  D
C416        C772   1.473       .  S
C421        C422   1.538       .  S
C421        C427   1.542       .  S
C421        C425   1.559       .  S
C421        C762   1.534       .  S
C422        H429   1.087       .  S
C422        C423   1.356       .  D
C423        C775   1.477       .  S
C423        C424   1.533       .  S
C424        C428   1.533       .  S
C424        C426   1.544       .  S
C424        H430   1.111       .  S
C425        H431   1.082       .  S
C425        C426   1.375       .  D
C427        H432   1.087       .  S
C427        C428   1.359       .  D
C428        C825   1.483       .  S
C433        C434   1.539       .  S
C433        C439   1.543       .  S
C433        C437   1.567       .  S
C433        C795   1.537       .  S
C434        H441   1.087       .  S
C434        C435   1.354       .  D
C435        C752   1.471       .  S
C435        C436   1.525       .  S
C436        C440   1.530       .  S
C436        C438   1.540       .  S
C436        H442   1.111       .  S
C437        H443   1.083       .  S
C437        C438   1.382       .  D
C439        H444   1.086       .  S
C439        C440   1.357       .  D
C440        C895   1.479       .  S
C445        C446   1.549       .  S
C445        C451   1.548       .  S
C445        C449   1.563       .  S
C445        C765   1.546       .  S
C446        H453   1.087       .  S
C446        C447   1.359       .  D
C447        C875   1.475       .  S
C447        C448   1.520       .  S
C448        C452   1.520       .  S
C448        C450   1.533       .  S
C448        H454   1.111       .  S
C449        H455   1.074       .  S
C449        C450   1.375       .  D
C451        H456   1.087       .  S
C451        C452   1.355       .  D
C452        C755   1.471       .  S
C457        C458   1.556       .  S
C457        C463   1.551       .  S
C457        C461   1.547       .  S
C457        C815   1.543       .  S
C458        H465   1.085       .  S
C458        C459   1.371       .  D
C459        C742   1.491       .  S
C459        C460   1.529       .  S
C460        C464   1.524       .  S
C460        C462   1.535       .  S
C460        H466   1.111       .  S
C461        H467   1.085       .  S
C461        C462   1.369       .  D
C463        H468   1.084       .  S
C463        C464   1.358       .  D
C464        C732   1.474       .  S
C469        C470   1.543       .  S
C469        C475   1.540       .  S
C469        C473   1.563       .  S
C469        C865   1.533       .  S
C470        H477   1.087       .  S
C470        C471   1.356       .  D
C471        C735   1.474       .  S
C471        C472   1.524       .  S
C472        C476   1.527       .  S
C472        C474   1.537       .  S
C472        H478   1.111       .  S
C473        H479   1.083       .  S
C473        C474   1.380       .  D
C475        H480   1.087       .  S
C475        C476   1.356       .  D
C476        C725   1.474       .  S
C481        C482   1.538       .  S
C481        C487   1.541       .  S
C481        C485   1.567       .  S
C481        C885   1.536       .  S
C482        H489   1.087       .  S
C482        C483   1.353       .  D
C483        C712   1.474       .  S
C483        C484   1.526       .  S
C484        C488   1.528       .  S
C484        C486   1.540       .  S
C484        H490   1.111       .  S
C485        H491   1.084       .  S
C485        C486   1.385       .  D
C487        H492   1.086       .  S
C487        C488   1.356       .  D
C488        C702   1.479       .  S
C493        C494   1.553       .  S
C493        C499   1.547       .  S
C493        C497   1.553       .  S
C493        C915   1.540       .  S
C494        H501   1.084       .  S
C494        C495   1.365       .  D
C495        C705   1.487       .  S
C495        C496   1.530       .  S
C496        C500   1.527       .  S
C496        C498   1.536       .  S
C496        H502   1.110       .  S
C497        H503   1.085       .  S
C497        C498   1.373       .  D
C499        H504   1.084       .  S
C499        C500   1.357       .  D
C500        C692   1.477       .  S
C505        C506   1.537       .  S
C505        C511   1.543       .  S
C505        C509   1.564       .  S
C505        C935   1.535       .  S
C506        H513   1.087       .  S
C506        C507   1.352       .  D
C507        C682   1.473       .  S
C507        C508   1.527       .  S
C508        C512   1.531       .  S
C508        C510   1.540       .  S
C508        H514   1.109       .  S
C509        H515   1.083       .  S
C509        C510   1.381       .  D
C511        H516   1.086       .  S
C511        C512   1.362       .  D
C512        C672   1.487       .  S
C517        C518   1.544       .  S
C517        C523   1.539       .  S
C517        C521   1.563       .  S
C517        C835   1.531       .  S
C518        H525   1.086       .  S
C518        C519   1.359       .  D
C519        C675   1.479       .  S
C519        C520   1.525       .  S
C520        C524   1.528       .  S
C520        C522   1.533       .  S
C520        H526   1.112       .  S
C521        H527   1.083       .  S
C521        C522   1.379       .  D
C523        H528   1.087       .  S
C523        C524   1.353       .  D
C524        C662   1.477       .  S
C529        C530   1.541       .  S
C529        C535   1.543       .  S
C529        C533   1.560       .  S
C529        C652   1.533       .  S
C530        H537   1.087       .  S
C530        C531   1.357       .  D
C531        C665   1.479       .  S
C531        C532   1.529       .  S
C532        C536   1.529       .  S
C532        C534   1.539       .  S
C532        H538   1.111       .  S
C533        H539   1.083       .  S
C533        C534   1.376       .  D
C535        H540   1.086       .  S
C535        C536   1.360       .  D
C536        C645   1.484       .  S
C541        C542   1.544       .  S
C541        C547   1.547       .  S
C541        C545   1.563       .  S
C541        C655   1.545       .  S
C542        H549   1.087       .  S
C542        C543   1.353       .  D
C543        C632   1.477       .  S
C543        C544   1.530       .  S
C544        C548   1.531       .  S
C544        C546   1.540       .  S
C544        H550   1.110       .  S
C545        H551   1.076       .  S
C545        C546   1.377       .  D
C547        H552   1.087       .  S
C547        C548   1.359       .  D
C548        C745   1.490       .  S
C553        C554   1.544       .  S
C553        C559   1.544       .  S
C553        C557   1.564       .  S
C553        C622   1.538       .  S
C554        H561   1.086       .  S
C554        C555   1.361       .  D
C555        C612   1.480       .  S
C555        C556   1.527       .  S
C556        C560   1.520       .  S
C556        C558   1.538       .  S
C556        H562   1.111       .  S
C557        H563   1.083       .  S
C557        C558   1.378       .  D
C559        H564   1.087       .  S
C559        C560   1.357       .  D
C560        C715   1.472       .  S
C565        C566   1.550       .  S
C565        C571   1.547       .  S
C565        C569   1.564       .  S
C565        C625   1.548       .  S
C566        H573   1.086       .  S
C566        C567   1.361       .  D
C567        C722   1.482       .  S
C567        C568   1.524       .  S
C568        C572   1.524       .  S
C568        C570   1.536       .  S
C568        H574   1.111       .  S
C569        H575   1.076       .  S
C569        C570   1.378       .  D
C571        H576   1.087       .  S
C571        C572   1.353       .  D
C572        C635   1.473       .  S
C577        C578   1.551       .  S
C577        C583   1.548       .  S
C577        C581   1.566       .  S
C577        C602   1.548       .  S
C578        H585   1.087       .  S
C578        C579   1.360       .  D
C579        C642   1.479       .  S
C579        C580   1.518       .  S
C580        C584   1.518       .  S
C580        C582   1.533       .  S
C580        H586   1.111       .  S
C581        H587   1.077       .  S
C581        C582   1.381       .  D
C583        H588   1.087       .  S
C583        C584   1.352       .  D
C584        C685   1.469       .  S
C589        C590   1.543       .  S
C589        C595   1.539       .  S
C589        C593   1.563       .  S
C589        C605   1.534       .  S
C590        H597   1.086       .  S
C590        C591   1.357       .  D
C591        C695   1.481       .  S
C591        C592   1.531       .  S
C592        C596   1.529       .  S
C592        C594   1.540       .  S
C592        H598   1.111       .  S
C593        H599   1.083       .  S
C593        C594   1.381       .  D
C595        H600   1.087       .  S
C595        C596   1.354       .  D
C596        C615   1.480       .  S
C601        C602   1.409       .  A
C601        C606   1.381       .  A
C601        H608   1.084       .  S
C602        C603   1.424       .  A
C603        C604   1.419       .  A
C603       Br610   1.913       .  S
C604        C605   1.412       .  A
C604        H609   1.080       .  S
C605        C606   1.417       .  A
C606       Br607   1.933       .  S
C611        C612   1.403       .  A
C611        C616   1.396       .  A
C611        H618   1.084       .  S
C612        C613   1.409       .  A
C613        C614   1.400       .  A
C613       Br620   1.918       .  S
C614        C615   1.405       .  A
C614        H619   1.083       .  S
C615        C616   1.404       .  A
C616       Br617   1.910       .  S
C621        C622   1.412       .  A
C621        C626   1.417       .  A
C621        H628   1.079       .  S
C622        C623   1.416       .  A
C623        C624   1.384       .  A
C623       Br630   1.928       .  S
C624        C625   1.408       .  A
C624        H629   1.084       .  S
C625        C626   1.424       .  A
C626       Br627   1.914       .  S
C631        C632   1.405       .  A
C631        C636   1.401       .  A
C631        H638   1.083       .  S
C632        C633   1.406       .  A
C633        C634   1.391       .  A
C633       Br640   1.910       .  S
C634        C635   1.398       .  A
C634        H639   1.084       .  S
C635        C636   1.410       .  A
C636       Br637   1.921       .  S
C641        C642   1.402       .  A
C641        C646   1.399       .  A
C641        H648   1.084       .  S
C642        C643   1.408       .  A
C643        C644   1.401       .  A
C643       Br650   1.919       .  S
C644        C645   1.405       .  A
C644        H649   1.083       .  S
C645        C646   1.410       .  A
C646       Br647   1.917       .  S
C651        C652   1.412       .  A
C651        C656   1.415       .  A
C651        H658   1.079       .  S
C652        C653   1.415       .  A
C653        C654   1.382       .  A
C653       Br660   1.929       .  S
C654        C655   1.409       .  A
C654        H659   1.084       .  S
C655        C656   1.423       .  A
C656       Br657   1.913       .  S
C661        C662   1.403       .  A
C661        C666   1.400       .  A
C661        H668   1.083       .  S
C662        C663   1.404       .  A
C663        C664   1.394       .  A
C663       Br670   1.910       .  S
C664        C665   1.402       .  A
C664        H669   1.083       .  S
C665        C666   1.410       .  A
C666       Br667   1.915       .  S
C671        C672   1.406       .  A
C671        C676   1.401       .  A
C671        H678   1.083       .  S
C672        C673   1.412       .  A
C673        C674   1.395       .  A
C673       Br680   1.915       .  S
C674        C675   1.400       .  A
C674        H679   1.084       .  S
C675        C676   1.410       .  A
C676       Br677   1.920       .  S
C681        C682   1.400       .  A
C681        C686   1.394       .  A
C681        H688   1.084       .  S
C682        C683   1.410       .  A
C683        C684   1.396       .  A
C683       Br690   1.914       .  S
C684        C685   1.399       .  A
C684        H689   1.084       .  S
C685        C686   1.405       .  A
C686       Br687   1.913       .  S
C691        C692   1.400       .  A
C691        C696   1.394       .  A
C691        H698   1.084       .  S
C692        C693   1.409       .  A
C693        C694   1.402       .  A
C693       Br700   1.919       .  S
C694        C695   1.405       .  A
C694        H699   1.083       .  S
C695        C696   1.407       .  A
C696       Br697   1.913       .  S
C701        C702   1.398       .  A
C701        C706   1.395       .  A
C701        H708   1.084       .  S
C702        C703   1.410       .  A
C703        C704   1.402       .  A
C703       Br710   1.918       .  S
C704        C705   1.405       .  A
C704        H709   1.083       .  S
C705        C706   1.411       .  A
C706       Br707   1.908       .  S
C711        C712   1.403       .  A
C711        C716   1.400       .  A
C711        H718   1.084       .  S
C712        C713   1.406       .  A
C713        C714   1.393       .  A
C713       Br720   1.911       .  S
C714        C715   1.399       .  A
C714        H719   1.084       .  S
C715        C716   1.407       .  A
C716       Br717   1.914       .  S
C721        C722   1.406       .  A
C721        C726   1.404       .  A
C721        H728   1.083       .  S
C722        C723   1.409       .  A
C723        C724   1.391       .  A
C723       Br730   1.906       .  S
C724        C725   1.395       .  A
C724        H729   1.082       .  S
C725        C726   1.410       .  A
C726       Br727   1.919       .  S
C731        C732   1.402       .  A
C731        C736   1.401       .  A
C731        H738   1.083       .  S
C732        C733   1.407       .  A
C733        C734   1.395       .  A
C733       Br740   1.916       .  S
C734        C735   1.399       .  A
C734        H739   1.084       .  S
C735        C736   1.409       .  A
C736       Br737   1.915       .  S
C741        C742   1.405       .  A
C741        C746   1.401       .  A
C741        H748   1.084       .  S
C742        C743   1.412       .  A
C743        C744   1.402       .  A
C743       Br750   1.913       .  S
C744        C745   1.404       .  A
C744        H749   1.084       .  S
C745        C746   1.409       .  A
C746       Br747   1.913       .  S
C751        C752   1.400       .  A
C751        C756   1.396       .  A
C751        H758   1.084       .  S
C752        C753   1.407       .  A
C753        C754   1.401       .  A
C753       Br760   1.917       .  S
C754        C755   1.402       .  A
C754        H759   1.083       .  S
C755        C756   1.406       .  A
C756       Br757   1.917       .  S
C761        C762   1.410       .  A
C761        C766   1.413       .  A
C761        H768   1.078       .  S
C762        C763   1.416       .  A
C763        C764   1.386       .  A
C763       Br770   1.931       .  S
C764        C765   1.410       .  A
C764        H769   1.084       .  S
C765        C766   1.424       .  A
C766       Br767   1.914       .  S
C771        C772   1.399       .  A
C771        C776   1.392       .  A
C771        H778   1.083       .  S
C772        C773   1.408       .  A
C773        C774   1.400       .  A
C773       Br780   1.912       .  S
C774        C775   1.403       .  A
C774        H779   1.083       .  S
C775        C776   1.406       .  A
C776       Br777   1.908       .  S
C781        C782   1.407       .  A
C781        C786   1.384       .  A
C781        H788   1.084       .  S
C782        C783   1.427       .  A
C783        C784   1.419       .  A
C783       Br790   1.914       .  S
C784        C785   1.411       .  A
C784        H789   1.080       .  S
C785        C786   1.417       .  A
C786       Br787   1.926       .  S
C791        C792   1.407       .  A
C791        C796   1.384       .  A
C791        H798   1.084       .  S
C792        C793   1.424       .  A
C793        C794   1.417       .  A
C793       Br800   1.914       .  S
C794        C795   1.411       .  A
C794        H799   1.080       .  S
C795        C796   1.418       .  A
C796       Br797   1.930       .  S
C801        C802   1.404       .  A
C801        C806   1.403       .  A
C801        H808   1.083       .  S
C802        C803   1.409       .  A
C803        C804   1.398       .  A
C803       Br810   1.910       .  S
C804        C805   1.400       .  A
C804        H809   1.083       .  S
C805        C806   1.410       .  A
C806       Br807   1.919       .  S
C811        C812   1.411       .  A
C811        C816   1.404       .  A
C811        H818   1.082       .  S
C812        C813   1.414       .  A
C813        C814   1.403       .  A
C813       Br820   1.920       .  S
C814        C815   1.412       .  A
C814        H819   1.081       .  S
C815        C816   1.414       .  A
C816       Br817   1.915       .  S
C821        C822   1.402       .  A
C821        C826   1.403       .  A
C821        H828   1.084       .  S
C822        C823   1.409       .  A
C823        C824   1.400       .  A
C823       Br830   1.917       .  S
C824        C825   1.402       .  A
C824        H829   1.084       .  S
C825        C826   1.409       .  A
C826       Br827   1.913       .  S
C831        C832   1.408       .  A
C831        C836   1.382       .  A
C831        H838   1.084       .  S
C832        C833   1.425       .  A
C833        C834   1.415       .  A
C833       Br840   1.913       .  S
C834        C835   1.409       .  A
C834        H839   1.080       .  S
C835        C836   1.417       .  A
C836       Br837   1.933       .  S
C841        C842   1.405       .  A
C841        C846   1.398       .  A
C841        H848   1.084       .  S
C842        C843   1.409       .  A
C843        C844   1.397       .  A
C843       Br850   1.916       .  S
C844        C845   1.402       .  A
C844        H849   1.084       .  S
C845        C846   1.405       .  A
C846       Br847   1.918       .  S
C851        C852   1.401       .  A
C851        C856   1.394       .  A
C851        H858   1.084       .  S
C852        C853   1.409       .  A
C853        C854   1.402       .  A
C853       Br860   1.918       .  S
C854        C855   1.404       .  A
C854        H859   1.083       .  S
C855        C856   1.407       .  A
C856       Br857   1.914       .  S
C861        C862   1.408       .  A
C861        C866   1.380       .  A
C861        H868   1.085       .  S
C862        C863   1.424       .  A
C863        C864   1.417       .  A
C863       Br870   1.913       .  S
C864        C865   1.411       .  A
C864        H869   1.080       .  S
C865        C866   1.416       .  A
C866       Br867   1.930       .  S
C871        C872   1.406       .  A
C871        C876   1.400       .  A
C871        H878   1.084       .  S
C872        C873   1.408       .  A
C873        C874   1.395       .  A
C873       Br880   1.913       .  S
C874        C875   1.400       .  A
C874        H879   1.084       .  S
C875        C876   1.408       .  A
C876       Br877   1.920       .  S
C881        C882   1.406       .  A
C881        C886   1.384       .  A
C881        H888   1.084       .  S
C882        C883   1.426       .  A
C883        C884   1.418       .  A
C883       Br890   1.914       .  S
C884        C885   1.409       .  A
C884        H889   1.081       .  S
C885        C886   1.420       .  A
C886       Br887   1.934       .  S
C891        C892   1.401       .  A
C891        C896   1.397       .  A
C891        H898   1.084       .  S
C892        C893   1.407       .  A
C893        C894   1.402       .  A
C893       Br900   1.916       .  S
C894        C895   1.404       .  A
C894        H899   1.083       .  S
C895        C896   1.407       .  A
C896       Br897   1.914       .  S
C901        C902   1.401       .  A
C901        C906   1.396       .  A
C901        H908   1.084       .  S
C902        C903   1.408       .  A
C903        C904   1.403       .  A
C903       Br910   1.916       .  S
C904        C905   1.405       .  A
C904        H909   1.083       .  S
C905        C906   1.407       .  A
C906       Br907   1.913       .  S
C911        C912   1.408       .  A
C911        C916   1.402       .  A
C911        H918   1.083       .  S
C912        C913   1.419       .  A
C913        C914   1.401       .  A
C913       Br920   1.924       .  S
C914        C915   1.408       .  A
C914        H919   1.082       .  S
C915        C916   1.418       .  A
C916       Br917   1.923       .  S
C921        C922   1.399       .  A
C921        C926   1.396       .  A
C921        H928   1.084       .  S
C922        C923   1.408       .  A
C923        C924   1.403       .  A
C923       Br930   1.917       .  S
C924        C925   1.403       .  A
C924        H929   1.083       .  S
C925        C926   1.409       .  A
C926       Br927   1.916       .  S
C931        C932   1.407       .  A
C931        C936   1.381       .  A
C931        H938   1.085       .  S
C932        C933   1.425       .  A
C933        C934   1.418       .  A
C933       Br940   1.913       .  S
C934        C935   1.411       .  A
C934        H939   1.080       .  S
C935        C936   1.417       .  A
C936       Br937   1.928       .  S
C941        C942   1.405       .  A
C941        C946   1.402       .  A
C941        H948   1.083       .  S
C942        C943   1.407       .  A
C943        C944   1.391       .  A
C943       Br950   1.908       .  S
C944        C945   1.397       .  A
C944        H949   1.084       .  S
C945        C946   1.410       .  A
C946       Br947   1.920       .  S
C951        C952   1.406       .  A
C951        C956   1.404       .  A
C951        H958   1.084       .  S
C952        C953   1.411       .  A
C953        C954   1.398       .  A
C953       Br960   1.914       .  S
C954        C955   1.401       .  A
C954        H959   1.084       .  S
C955        C956   1.411       .  A
C956       Br957   1.918       .  S
