geometry optimzed in LAMMPS
_audit_creation_date              2020-11-30 
_audit_creation_method            'lammps2cif' 
_symmetry_space_group_name_H-M    'P1' 
_symmetry_Int_Tables_number       1 
_symmetry_cell_setting            triclinic 
loop_ 
_symmetry_equiv_pos_as_xyz 
  x,y,z 
_cell_length_a                    32.86411537 
_cell_length_b                    43.62083882219438 
_cell_length_c                    33.03170788737238 
_cell_angle_alpha                 90.07532829815706 
_cell_angle_beta                  90.11900635575336 
_cell_angle_gamma                 89.81368776944956 
loop_ 
_atom_site_label 
_atom_site_type_symbol 
_atom_site_fract_x 
_atom_site_fract_y 
_atom_site_fract_z 
_atom_site_charge 
N1          N  0.45293435  0.46492259  0.42498440    -0.07000
N2          N  0.44699561  0.44189394  0.39970429    -0.59100
N3          N  0.42354861  0.03547864  0.45221955    -0.06700
N4          N  0.39741090  0.05802462  0.44607492    -0.61300
N5          N  0.45188450  0.03547985  0.42418123    -0.06300
N6          N  0.44576491  0.05820482  0.39849285    -0.59100
N7          N  0.42455908  0.46530621  0.45297411    -0.06000
N8          N  0.39868121  0.44267736  0.44731093    -0.61600
C9          C  0.41292005  0.42830007  0.41393125     0.95200
C10         C  0.41155812  0.07198267  0.41241484     0.94900
N11         N  0.45233904  0.03616746  0.07562032    -0.07200
N12         N  0.44673205  0.05936796  0.10069329    -0.59700
N13         N  0.42428706  0.46562844  0.04753573    -0.05300
N14         N  0.39864096  0.44280075  0.05284244    -0.61000
N15         N  0.45242518  0.46543320  0.07586113    -0.07200
N16         N  0.44638362  0.44243642  0.10108357    -0.60000
N17         N  0.42426822  0.03625837  0.04719978    -0.05000
N18         N  0.39905957  0.05955021  0.05227492    -0.61000
Mn19       Mn  0.42295437  0.50071518  0.99999993     1.18400
C20         C  0.41351405  0.07387182  0.08566103     0.97200
C21         C  0.41273930  0.42838657  0.08628749     0.97900
N22         N  0.04789907  0.03586414  0.42455737    -0.07200
N23         N  0.05330082  0.05854095  0.39877288    -0.63600
N24         N  0.07685352  0.46567570  0.45227994    -0.06000
N25         N  0.10297159  0.44306078  0.44657813    -0.64200
N26         N  0.04833544  0.46517234  0.42430578    -0.06800
N27         N  0.05439537  0.44213163  0.39906287    -0.63800
N28         N  0.07614486  0.03630758  0.45279239    -0.05600
N29         N  0.10135147  0.05935098  0.44667448    -0.64500
Mn30       Mn  0.00065640  0.00041701  0.42313617     1.10700
C31         C  0.08674159  0.07311208  0.41282602     0.98500
C32         C  0.08869217  0.42859908  0.41322011     0.98500
N33         N  0.04884912  0.46564703  0.07539994    -0.06800
N34         N  0.05522217  0.44287070  0.10093873    -0.62100
N35         N  0.07594705  0.03634978  0.04831366    -0.06100
N36         N  0.10122723  0.05935308  0.05439049    -0.58900
N37         N  0.04754568  0.03608909  0.07629239    -0.07400
N38         N  0.05283452  0.05900836  0.10186792    -0.61700
N39         N  0.07722105  0.46598134  0.04739354    -0.06400
N40         N  0.10345680  0.44345659  0.05334439    -0.58900
Mn41       Mn  0.00012298  0.00051051  0.07720017     1.20200
Mn42       Mn  0.07801616  0.00112969  0.00072634     1.10100
Cl43       Cl  0.00048691  0.00066747  0.00015336    -0.86900
C44         C  0.08948498  0.42921369  0.08690985     0.95500
C45         C  0.08633227  0.07343976  0.08778768     0.95300
N46         N  0.29835765  0.28627832  0.17489530    -0.07000
N47         N  0.30392294  0.30950691  0.14992329    -0.59100
N48         N  0.32705031  0.21542959  0.20335383    -0.06700
N49         N  0.35213919  0.19205415  0.19832140    -0.61300
N50         N  0.29895586  0.21552761  0.17496350    -0.06300
N51         N  0.30440510  0.19226952  0.14996168    -0.59100
N52         N  0.32662287  0.28613643  0.20309863    -0.06000
N53         N  0.35187476  0.30923179  0.19795802    -0.61600
C54         C  0.33740907  0.32375424  0.16474939     0.95200
C55         C  0.33756790  0.17771195  0.16498756     0.94900
N56         N  0.29950987  0.21595867  0.32640276    -0.07200
N57         N  0.30571572  0.19319503  0.35200481    -0.59700
N58         N  0.32682791  0.28637270  0.29766820    -0.05300
N59         N  0.35262232  0.30905827  0.30337035    -0.61000
N60         N  0.29850245  0.28665561  0.32570561    -0.08800
N61         N  0.30437936  0.30965269  0.35105140    -0.60000
N62         N  0.32783162  0.21607368  0.29835055    -0.05000
N63         N  0.35404536  0.19355935  0.30439984    -0.61000
Mn64       Mn  0.32842458  0.25096233  0.25054265     1.18400
C65         C  0.33995619  0.17950604  0.33801849     0.97200
C66         C  0.33836968  0.32335109  0.33682198     0.97900
N67         N  0.20371031  0.21508703  0.17474007    -0.07200
N68         N  0.19844936  0.19210517  0.14927707    -0.63600
N69         N  0.17406057  0.28530757  0.20260934    -0.06000
N70         N  0.14782477  0.30783212  0.19665729    -0.64200
N71         N  0.20243324  0.28564182  0.17460370    -0.06800
N72         N  0.19606073  0.30841785  0.14906429    -0.63800
N73         N  0.17543558  0.21482569  0.20284491    -0.05600
N74         N  0.15025979  0.19172491  0.19695702    -0.64500
Mn75       Mn  0.25090333  0.25070698  0.17335103     1.10700
C76         C  0.16510331  0.17760950  0.16354496     0.98500
C77         C  0.16179738  0.32207478  0.16309192     0.98500
N78         N  0.20295416  0.28611955  0.32570405    -0.06800
N79         N  0.19690012  0.30916705  0.35093798    -0.62100
N80         N  0.17557718  0.21509508  0.29834601    -0.06100
N81         N  0.15023038  0.19218940  0.30471100    -0.58900
N82         N  0.20393321  0.21556697  0.32646813    -0.07400
N83         N  0.19845865  0.19300818  0.35243980    -0.61700
N84         N  0.17443704  0.28561519  0.29772903    -0.06400
N85         N  0.14832596  0.30823588  0.30342093    -0.58900
Mn86       Mn  0.25120760  0.25109995  0.32744683     1.20200
Mn87       Mn  0.17347624  0.25015526  0.25038673     1.10100
Cl88       Cl  0.25097353  0.25072299  0.25043455    -0.86900
C89         C  0.16260781  0.32270247  0.33677392     0.95500
C90         C  0.16484788  0.17851163  0.33859706     0.95300
C91         C  0.10568741  0.10036541  0.10732210    -0.01000
C92         C  0.14685960  0.10629790  0.09920929    -0.12900
C93         C  0.16703402  0.13101399  0.11729450     0.01200
C94         C  0.14579248  0.15065142  0.14407276    -0.01100
C95         C  0.10462753  0.14472319  0.15217726    -0.12900
C96         C  0.08443730  0.12004160  0.13403540     0.01100
H97         H  0.16367753  0.09126467  0.07906141     0.14100
H98         H  0.08780093  0.15977601  0.17229280     0.14100
C99         C  0.04162489  0.11632078  0.14243844     0.35700
C100        C  0.20978015  0.13488057  0.10864458     0.35600
N101        N  0.00729587  0.11354984  0.14921700    -0.44600
N102        N  0.24403982  0.13779719  0.10163064    -0.44600
C103        C  0.14554228  0.15152486  0.35825689    -0.01000
C104        C  0.11101666  0.13857405  0.33989497    -0.12900
C105        C  0.09114469  0.11333619  0.35689149     0.01200
C106        C  0.10587847  0.10022880  0.39332850    -0.01100
C107        C  0.14034510  0.11321695  0.41173061    -0.12900
C108        C  0.16015657  0.13850042  0.39478383     0.01100
H109        H  0.09927324  0.14819734  0.31194173     0.14100
H110        H  0.15207000  0.10359997  0.43969505     0.14100
C111        C  0.19519131  0.15035824  0.41604231     0.35700
C112        C  0.05584467  0.10167362  0.33585867     0.35600
N113        N  0.22319445  0.15965724  0.43339905    -0.44600
N114        N  0.02759045  0.09253777  0.31875165    -0.44600
C115        C  0.14252028  0.34933529  0.14396681    -0.01000
C116        C  0.16555275  0.36674831  0.11662661    -0.12900
C117        C  0.14928470  0.39282916  0.09783826     0.01200
C118        C  0.10876204  0.40195275  0.10603375    -0.01100
C119        C  0.08572953  0.38453960  0.13337366    -0.12900
C120        C  0.10199737  0.35845858  0.15216159     0.01100
H121        H  0.19676428  0.36023182  0.11021571     0.14100
H122        H  0.05451797  0.39105603  0.13978452     0.14100
C123        C  0.07571323  0.34116782  0.17858910     0.35700
C124        C  0.17556810  0.41011917  0.07140909     0.35600
N125        N  0.05441177  0.32738052  0.19961057    -0.44600
N126        N  0.19686878  0.42390579  0.05038605    -0.44600
C127        C  0.39407653  0.10079102  0.10511266    -0.01000
C128        C  0.40033965  0.10546372  0.14672967    -0.12900
C129        C  0.38184685  0.12994078  0.16711660     0.01200
C130        C  0.35679426  0.15069178  0.14558528    -0.01100
C131        C  0.35045542  0.14598383  0.10398819    -0.12900
C132        C  0.36889812  0.12148421  0.08360703     0.01100
H133        H  0.41914783  0.08953248  0.16371434     0.14100
H134        H  0.33163707  0.16191175  0.08700809     0.14100
C135        C  0.36269679  0.11913178  0.04040946     0.35700
C136        C  0.38781917  0.13221378  0.21034977     0.35600
N137        N  0.35768611  0.11760472  0.00577299    -0.44600
N138        N  0.39258848  0.13369206  0.24502228    -0.44600
C139        C  0.39321673  0.40155863  0.39461017    -0.01000
C140        C  0.41726583  0.38140240  0.37167829    -0.12900
C141        C  0.40021828  0.35574574  0.35278181     0.01200
C142        C  0.35802939  0.35006986  0.35625822    -0.01100
C143        C  0.33397473  0.37020807  0.37923295    -0.12900
C144        C  0.35104408  0.39583072  0.39821820     0.01100
H145        H  0.44972476  0.38538541  0.36906776     0.14100
H146        H  0.30152239  0.36620577  0.38186873     0.14100
C147        C  0.32414473  0.41644361  0.41963423     0.35700
C148        C  0.42719695  0.33497273  0.33174604     0.35600
N149        N  0.30260648  0.43301673  0.43672649    -0.44600
N150        N  0.44884911  0.31826214  0.31503476    -0.44600
C151        C  0.39253253  0.09921143  0.39339434    -0.01000
C152        C  0.41746529  0.11983612  0.37242560    -0.12900
C153        C  0.40123000  0.14623523  0.35444608     0.01200
C154        C  0.35900213  0.15223370  0.35691106    -0.01100
C155        C  0.33406941  0.13159497  0.37785222    -0.12900
C156        C  0.35029832  0.10519199  0.39581131     0.01100
H157        H  0.44997882  0.11564842  0.37073550     0.14100
H158        H  0.30155469  0.13578086  0.37955156     0.14100
C159        C  0.32250223  0.08407204  0.41478784     0.35700
C160        C  0.42900570  0.16732931  0.33539206     0.35600
N161        N  0.29999973  0.06718603  0.42974323    -0.44600
N162        N  0.45148430  0.18419437  0.32036008    -0.44600
C163        C  0.10824261  0.40162243  0.39403013    -0.01000
C164        C  0.08403849  0.38155665  0.37113705    -0.12900
C165        C  0.10091703  0.35572202  0.35231507     0.01200
C166        C  0.14306100  0.34968490  0.35595401    -0.01100
C167        C  0.16726603  0.36975243  0.37884404    -0.12900
C168        C  0.15038795  0.39558936  0.39766183     0.01100
H169        H  0.05159838  0.38578177  0.36843079     0.14100
H170        H  0.19970625  0.36552760  0.38154942     0.14100
C171        C  0.17743567  0.41609012  0.41897239     0.35700
C172        C  0.07387060  0.33523072  0.33098692     0.35600
N173        N  0.19909657  0.43260683  0.43591187    -0.44600
N174        N  0.05221009  0.31872357  0.31403064    -0.44600
C175        C  0.35669410  0.35095024  0.14568894    -0.01000
C176        C  0.34311244  0.36020212  0.10725926    -0.12900
C177        C  0.36092036  0.38495598  0.08707763     0.01200
C178        C  0.39303748  0.40145148  0.10556243    -0.01100
C179        C  0.40649042  0.39228436  0.14406857    -0.12900
C180        C  0.38873333  0.36750240  0.16422116     0.01100
H181        H  0.31872974  0.34776142  0.09245297     0.14100
H182        H  0.43087616  0.40471950  0.15887695     0.14100
C183        C  0.40386247  0.36026335  0.20413413     0.35700
C184        C  0.34593397  0.39210287  0.04709092     0.35600
N185        N  0.41625106  0.35476837  0.23612932    -0.44600
N186        N  0.33368886  0.39748650  0.01501226    -0.44600
N187        N  0.45293473  0.46491810  0.92498372    -0.07000
N188        N  0.44699224  0.44189272  0.89969911    -0.59100
N189        N  0.42354248  0.03547985  0.95222388    -0.06700
N190        N  0.39740362  0.05802527  0.94608018    -0.61300
N191        N  0.45187830  0.03548235  0.92418548    -0.06300
N192        N  0.44575746  0.05820767  0.89849797    -0.59100
N193        N  0.42455959  0.46530105  0.95297366    -0.06000
N194        N  0.39867811  0.44267505  0.94730591    -0.61600
C195        C  0.41291462  0.42830002  0.91392345     0.95200
C196        C  0.41155013  0.07198444  0.91242061     0.94900
N197        N  0.45234364  0.03616978  0.57561659    -0.07200
N198        N  0.44673703  0.05937108  0.60068838    -0.59700
N199        N  0.42428323  0.46563271  0.54753416    -0.05300
N200        N  0.39863464  0.44280657  0.55284073    -0.61000
N201        N  0.45242218  0.46543485  0.57585856    -0.07200
N202        N  0.44637889  0.44243771  0.60107985    -0.60000
N203        N  0.42427357  0.03626072  0.54719530    -0.05000
N204        N  0.39906588  0.05955342  0.55226858    -0.61000
Mn205      Mn  0.42295397  0.50072020  0.49999940     1.18400
C206        C  0.41352021  0.07387547  0.58565441     0.97200
C207        C  0.41273182  0.42839071  0.58628504     0.97900
N208        N  0.04789833  0.03586439  0.92456055    -0.07200
N209        N  0.05329643  0.05854160  0.89877611    -0.63600
N210        N  0.07684273  0.46567313  0.95227452    -0.06000
N211        N  0.10295422  0.44305276  0.94658239    -0.64200
N212        N  0.04832497  0.46516830  0.92430018    -0.06800
N213        N  0.05437904  0.44212068  0.89906639    -0.63800
N214        N  0.07614451  0.03630982  0.95279511    -0.05600
N215        N  0.10134774  0.05935521  0.94667697    -0.64500
Mn216      Mn  0.00065912  0.00041556  0.92313991     1.10700
C217        C  0.08673524  0.07311522  0.91282883     0.98500
C218        C  0.08867202  0.42858577  0.91322992     0.98500
N219        N  0.04885084  0.46564631  0.57540717    -0.06800
N220        N  0.05522135  0.44287009  0.60094688    -0.62100
N221        N  0.07594453  0.03634537  0.54831130    -0.06100
N222        N  0.10122540  0.05934803  0.55438923    -0.58900
N223        N  0.04754373  0.03608411  0.57629053    -0.07400
N224        N  0.05283413  0.05900194  0.60186775    -0.61700
N225        N  0.07722635  0.46598171  0.54740389    -0.06400
N226        N  0.10346410  0.44345876  0.55335909    -0.58900
Mn227      Mn  0.00011866  0.00050787  0.57719676     1.20200
Mn228      Mn  0.07801228  0.00112643  0.50072279     1.10100
Cl229      Cl  0.00048332  0.00066713  0.50014986    -0.86900
C230        C  0.08948811  0.42921647  0.58692331     0.95500
C231        C  0.08633204  0.07343340  0.58778819     0.95300
N232        N  0.29835616  0.28627647  0.67488963    -0.07000
N233        N  0.30392421  0.30950423  0.64991691    -0.59100
N234        N  0.32704478  0.21542679  0.70334977    -0.06700
N235        N  0.35213341  0.19205116  0.69831775    -0.61300
N236        N  0.29895183  0.21552590  0.67495792    -0.06300
N237        N  0.30440200  0.19226840  0.64995528    -0.59100
N238        N  0.32662091  0.28613333  0.70309321    -0.06000
N239        N  0.35187547  0.30922685  0.69795167    -0.61600
C240        C  0.33741250  0.32374945  0.66474191     0.95200
C241        C  0.33756356  0.17771000  0.66498252     0.94900
N242        N  0.29950063  0.21595711  0.82639802    -0.07200
N243        N  0.30570513  0.19319414  0.85200145    -0.59700
N244        N  0.32681942  0.28637133  0.79766227    -0.05300
N245        N  0.35261136  0.30905883  0.80336152    -0.61000
N246        N  0.29849320  0.28665505  0.82569897    -0.08800
N247        N  0.30436752  0.30965470  0.85104161    -0.60000
N248        N  0.32782339  0.21607133  0.79834694    -0.05000
N249        N  0.35403671  0.19355700  0.80439849    -0.61000
Mn250      Mn  0.32841850  0.25095976  0.75053825     1.18400
C251        C  0.33994599  0.17950460  0.83801731     0.97200
C252        C  0.33835701  0.32335378  0.83681082     0.97900
N253        N  0.20370651  0.21508789  0.67473091    -0.07200
N254        N  0.19844690  0.19210569  0.64926819    -0.63600
N255        N  0.17405625  0.28530766  0.70259936    -0.06000
N256        N  0.14781872  0.30783062  0.69664325    -0.64200
N257        N  0.20243242  0.28564291  0.67459675    -0.06800
N258        N  0.19606263  0.30841901  0.64905663    -0.63800
N259        N  0.17543143  0.21482604  0.70283528    -0.05600
N260        N  0.15025731  0.19172431  0.69694769    -0.64500
Mn261      Mn  0.25090063  0.25070669  0.67334441     1.10700
C262        C  0.16510145  0.17760906  0.66353576     0.98500
C263        C  0.16179554  0.32207273  0.66307917     0.98500
N264        N  0.20294412  0.28611547  0.82569883    -0.06800
N265        N  0.19688407  0.30915596  0.85094203    -0.62100
N266        N  0.17556911  0.21509334  0.79833655    -0.06100
N267        N  0.15022093  0.19218861  0.80470293    -0.58900
N268        N  0.20392505  0.21556518  0.82645885    -0.07400
N269        N  0.19844916  0.19300757  0.85243178    -0.61700
N270        N  0.17442677  0.28561266  0.79772391    -0.06400
N271        N  0.14830903  0.30822782  0.80342556    -0.58900
Mn272      Mn  0.25119884  0.25109811  0.82743972     1.20200
Mn273      Mn  0.17346946  0.25015466  0.75037765     1.10100
Cl274      Cl  0.25096730  0.25072187  0.75042773    -0.86900
C275        C  0.16258791  0.32268902  0.83678423     0.95500
C276        C  0.16483772  0.17851164  0.83859002     0.95300
C277        C  0.10568730  0.10035927  0.60732271    -0.01000
C278        C  0.14684987  0.10630727  0.59918151    -0.12900
C279        C  0.16702416  0.13102542  0.61726183     0.01200
C280        C  0.14579229  0.15064914  0.64406548    -0.01100
C281        C  0.10463736  0.14470473  0.65219933    -0.12900
C282        C  0.08444711  0.12002139  0.63406209     0.01100
H283        H  0.16366075  0.09128542  0.57901310     0.14100
H284        H  0.08781761  0.15974607  0.67233540     0.14100
C285        C  0.04164413  0.11628416  0.64249953     0.35700
C286        C  0.20976021  0.13490921  0.60857661     0.35600
N287        N  0.00732267  0.11350007  0.64930612    -0.44600
N288        N  0.24401167  0.13783957  0.60153347    -0.44600
C289        C  0.14553073  0.15152694  0.85825324    -0.01000
C290        C  0.11100528  0.13857476  0.83989270    -0.12900
C291        C  0.09113347  0.11333805  0.85689252     0.01200
C292        C  0.10586855  0.10023263  0.89333027    -0.01100
C293        C  0.14033366  0.11322306  0.91173187    -0.12900
C294        C  0.16014382  0.13850605  0.89478295     0.01100
H295        H  0.09926187  0.14819616  0.81193833     0.14100
H296        H  0.15205836  0.10360832  0.93969776     0.14100
C297        C  0.19517521  0.15036762  0.91604324     0.35700
C298        C  0.05583165  0.10167499  0.83586311     0.35600
N299        N  0.22317525  0.15966969  0.93340204    -0.44600
N300        N  0.02757557  0.09253865  0.81875960    -0.44600
C301        C  0.14252031  0.34933231  0.64395539    -0.01000
C302        C  0.16560566  0.36681845  0.61674205    -0.12900
C303        C  0.14933742  0.39290531  0.59796822     0.01200
C304        C  0.10876339  0.40195656  0.60604605    -0.01100
C305        C  0.08567801  0.38447029  0.63325911    -0.12900
C306        C  0.10194607  0.35838329  0.65203255     0.01100
H307        H  0.19685722  0.36035697  0.61042762     0.14100
H308        H  0.05442638  0.39093168  0.63957346     0.14100
C309        C  0.07561221  0.34100345  0.67830838     0.35700
C310        C  0.17567060  0.41028445  0.57169084     0.35600
N311        N  0.05427295  0.32714244  0.69920672    -0.44600
N312        N  0.19700917  0.42414481  0.55079102    -0.44600
C313        C  0.39408133  0.10079396  0.60510603    -0.01000
C314        C  0.40033457  0.10546164  0.64672541    -0.12900
C315        C  0.38183750  0.12993659  0.66711284     0.01200
C316        C  0.35679176  0.15069102  0.64557946    -0.01100
C317        C  0.35046294  0.14598821  0.60397987    -0.12900
C318        C  0.36890946  0.12149037  0.58359829     0.01100
H319        H  0.41913724  0.08952756  0.66371148     0.14100
H320        H  0.33164989  0.16191888  0.58699846     0.14100
C321        C  0.36271942  0.11914309  0.54039862     0.35700
C322        C  0.38779671  0.13220327  0.71034839     0.35600
N323        N  0.35771779  0.11762034  0.50576053    -0.44600
N324        N  0.39255511  0.13367625  0.74502277    -0.44600
C325        C  0.39320768  0.40156157  0.89459762    -0.01000
C326        C  0.41725476  0.38140552  0.87166341    -0.12900
C327        C  0.40020570  0.35574915  0.85276744     0.01200
C328        C  0.35801663  0.35007398  0.85624467    -0.01100
C329        C  0.33396325  0.37021311  0.87921949    -0.12900
C330        C  0.35103461  0.39583479  0.89820600     0.01100
H331        H  0.44971396  0.38538725  0.86905285     0.14100
H332        H  0.30151092  0.36621122  0.88185645     0.14100
C333        C  0.32413776  0.41644594  0.91962812     0.35700
C334        C  0.42718397  0.33497371  0.83173536     0.35600
N335        N  0.30260204  0.43301666  0.93672759    -0.44600
N336        N  0.44883602  0.31826016  0.81502909    -0.44600
C337        C  0.39252351  0.09921311  0.89340074    -0.01000
C338        C  0.41745597  0.11983804  0.87243212    -0.12900
C339        C  0.40122025  0.14623642  0.85445130     0.01200
C340        C  0.35899197  0.15223353  0.85691336    -0.01100
C341        C  0.33405948  0.13159511  0.87785557    -0.12900
C342        C  0.35028910  0.10519324  0.89581735     0.01100
H343        H  0.44996977  0.11565120  0.87074330     0.14100
H344        H  0.30154461  0.13578047  0.87955394     0.14100
C345        C  0.32249375  0.08407431  0.91479703     0.35700
C346        C  0.42899608  0.16733184  0.83540017     0.35600
N347        N  0.29999197  0.06718930  0.92975549    -0.44600
N348        N  0.45147485  0.18419829  0.82037121    -0.44600
C349        C  0.10821906  0.40160330  0.89405010    -0.01000
C350        C  0.08401417  0.38153574  0.87116003    -0.12900
C351        C  0.10089238  0.35569895  0.85234211     0.01200
C352        C  0.14303757  0.34966565  0.85597436    -0.01100
C353        C  0.16724160  0.36973129  0.87886780    -0.12900
C354        C  0.15036309  0.39556617  0.89768927     0.01100
H355        H  0.05157400  0.38576064  0.86845430     0.14100
H356        H  0.19968167  0.36550607  0.88157430     0.14100
C357        C  0.17740968  0.41605797  0.91901641     0.35700
C358        C  0.07384502  0.33519883  0.83103005     0.35600
N359        N  0.19907038  0.43256565  0.93597157    -0.44600
N360        N  0.05218455  0.31868269  0.81408906    -0.44600
C361        C  0.35669806  0.35094623  0.64568227    -0.01000
C362        C  0.34306878  0.36023041  0.60728255    -0.12900
C363        C  0.36087005  0.38498781  0.58710247     0.01200
C364        C  0.39303013  0.40145445  0.60555868    -0.01100
C365        C  0.40653081  0.39225502  0.64403501    -0.12900
C366        C  0.38878128  0.36746903  0.66418535     0.01100
H367        H  0.31865070  0.34781384  0.59249872     0.14100
H368        H  0.43095193  0.40466594  0.65882103     0.14100
C369        C  0.40397171  0.36019172  0.70406320     0.35700
C370        C  0.34582598  0.39217087  0.54714843     0.35600
N371        N  0.41641094  0.35466516  0.73602956    -0.44600
N372        N  0.33353355  0.39758378  0.51509618    -0.44600
N373        N  0.45238007  0.96478229  0.42503763    -0.07000
N374        N  0.44626214  0.94181219  0.39970734    -0.59100
N375        N  0.42383815  0.53554599  0.45218146    -0.06700
N376        N  0.39758634  0.55800568  0.44600930    -0.61300
N377        N  0.45221545  0.53563538  0.42418799    -0.06300
N378        N  0.44599149  0.55834402  0.39848805    -0.59100
N379        N  0.42404746  0.96521831  0.45307292    -0.06000
N380        N  0.39801463  0.94267835  0.44737365    -0.61600
C381        C  0.41212813  0.92829397  0.41393283     0.95200
C382        C  0.41168365  0.57201471  0.41237611     0.94900
N383        N  0.45232817  0.53611851  0.07559152    -0.07200
N384        N  0.44677250  0.55935946  0.10059382    -0.59700
N385        N  0.42429513  0.96565137  0.04774471    -0.05300
N386        N  0.39868833  0.94283248  0.05319881    -0.61000
N387        N  0.45253046  0.96547855  0.07597314    -0.07200
N388        N  0.44660411  0.94250007  0.10125176    -0.60000
N389        N  0.42433413  0.53624199  0.04710008    -0.05000
N390        N  0.39921940  0.55960372  0.05204812    -0.61000
Mn391      Mn  0.42273218  0.00068547  0.00012476     1.18400
C392        C  0.41366636  0.57392028  0.08543877     0.97200
C393        C  0.41287543  0.92846322  0.08664032     0.97900
N394        N  0.04735441  0.53572258  0.42354387    -0.07200
N395        N  0.05283027  0.55827962  0.39757001    -0.63600
N396        N  0.07712161  0.96568166  0.45338248    -0.06000
N397        N  0.10293717  0.94282266  0.44797807    -0.64200
N398        N  0.04886044  0.96536704  0.42516438    -0.06800
N399        N  0.05491724  0.94228973  0.40001324    -0.63800
N400        N  0.07571083  0.53619467  0.45166567    -0.05600
N401        N  0.10105932  0.55909893  0.44529813    -0.64500
Mn402      Mn  0.00008041  0.50018982  0.42256553     1.10700
C403        C  0.08644243  0.57277525  0.41141070     0.98500
C404        C  0.08881165  0.92836677  0.41453581     0.98500
N405        N  0.04837632  0.96539404  0.07609246    -0.06800
N406        N  0.05434775  0.94243730  0.10147379    -0.62100
N407        N  0.07584603  0.53646291  0.04715739    -0.06100
N408        N  0.10102199  0.55956371  0.05304445    -0.58900
N409        N  0.04757181  0.53620172  0.07526278    -0.07400
N410        N  0.05283293  0.55918385  0.10072517    -0.61700
N411        N  0.07715171  0.96592326  0.04848096    -0.06400
N412        N  0.10345147  0.94347170  0.05465381    -0.58900
Mn413      Mn  0.00037898  0.50058198  0.07665450     1.20200
Mn414      Mn  0.07780430  0.50113326  0.99961608     1.10100
Cl415      Cl  0.00030706  0.50056566  0.99957081    -0.86900
C416        C  0.08891405  0.92905098  0.08783031     0.95500
C417        C  0.08617855  0.57367932  0.08645630     0.95300
N418        N  0.29871907  0.78621165  0.17482731    -0.07000
N419        N  0.30452854  0.80944315  0.14994401    -0.59100
N420        N  0.32703142  0.71535815  0.20310281    -0.06700
N421        N  0.35224616  0.69207896  0.19798964    -0.61300
N422        N  0.29910110  0.71554529  0.17454893    -0.06300
N423        N  0.30479793  0.69244769  0.14934634    -0.59100
N424        N  0.32682880  0.78596970  0.20317607    -0.06000
N425        N  0.35223604  0.80898583  0.19820490    -0.61600
C426        C  0.33803843  0.82355810  0.16492771     0.95200
C427        C  0.33792936  0.67789365  0.16443704     0.94900
N428        N  0.29888348  0.71566305  0.32607597    -0.07200
N429        N  0.30507062  0.69293776  0.35175752    -0.59700
N430        N  0.32653518  0.78606730  0.29772829    -0.05300
N431        N  0.35241076  0.80866633  0.30368370    -0.61000
N432        N  0.29803439  0.78636924  0.32558634    -0.08800
N433        N  0.30387986  0.80929070  0.35106812    -0.60000
N434        N  0.32731335  0.71578907  0.29813668    -0.05000
N435        N  0.35357464  0.69333797  0.30433275    -0.61000
Mn436      Mn  0.32824182  0.75074662  0.25046807     1.18400
C437        C  0.33941831  0.67929494  0.33792220     0.97200
C438        C  0.33803623  0.82293006  0.33710947     0.97900
N439        N  0.20373105  0.71519846  0.17371067    -0.07200
N440        N  0.19844304  0.69227863  0.14813599    -0.63600
N441        N  0.17412429  0.78536382  0.20152198    -0.06000
N442        N  0.14782425  0.80781531  0.19535005    -0.64200
N443        N  0.20289928  0.78589344  0.17391009    -0.06800
N444        N  0.19692720  0.80885039  0.14852928    -0.63800
N445        N  0.17532998  0.71493763  0.20168972    -0.05600
N446        N  0.15005044  0.69193382  0.19561380    -0.64500
Mn447      Mn  0.25115299  0.75077723  0.17280120     1.10700
C448        C  0.16494603  0.67784694  0.16221714     0.98500
C449        C  0.16236099  0.82223638  0.16217361     0.98500
N450        N  0.20241105  0.78592040  0.32483260    -0.06800
N451        N  0.19635175  0.80899730  0.34998370    -0.62100
N452        N  0.17513314  0.71497828  0.29720811    -0.06100
N453        N  0.14992943  0.69193338  0.30332708    -0.58900
N454        N  0.20337941  0.71542398  0.32544256    -0.07400
N455        N  0.19798088  0.69274738  0.35122786    -0.61700
N456        N  0.17414905  0.78560362  0.29661531    -0.06400
N457        N  0.14833044  0.80846068  0.30202032    -0.58900
Mn458      Mn  0.25061866  0.75087283  0.32686187     1.20200
Mn459      Mn  0.17326080  0.75015777  0.24927649     1.10100
Cl460      Cl  0.25078993  0.75062033  0.24984818    -0.86900
C461        C  0.16245515  0.82291778  0.33546199     0.95500
C462        C  0.16454154  0.67817406  0.33717578     0.95300
C463        C  0.10548896  0.60063702  0.10592844    -0.01000
C464        C  0.14665920  0.60655694  0.09784006    -0.12900
C465        C  0.16684852  0.63123781  0.11598451     0.01200
C466        C  0.14559187  0.65092141  0.14268298    -0.01100
C467        C  0.10441448  0.64499711  0.15077978    -0.12900
C468        C  0.08424100  0.62028175  0.13269214     0.01100
H469        H  0.16349016  0.59149792  0.07773619     0.14100
H470        H  0.08759209  0.66003654  0.17091601     0.14100
C471        C  0.04148936  0.61642375  0.14132250     0.35700
C472        C  0.20966644  0.63494998  0.10760171     0.35600
N473        N  0.00722524  0.61351380  0.14832015    -0.44600
N474        N  0.24399989  0.63771431  0.10084021    -0.44600
C475        C  0.14540844  0.65105664  0.35667409    -0.01000
C476        C  0.11095577  0.63805668  0.33826121    -0.12900
C477        C  0.09114731  0.61277220  0.35520813     0.01200
C478        C  0.10574889  0.59976011  0.39174776    -0.01100
C479        C  0.14026188  0.61272191  0.41011964    -0.12900
C480        C  0.16013219  0.63795993  0.39312170     0.01100
H481        H  0.09924044  0.64766438  0.31028723     0.14100
H482        H  0.15199599  0.60310758  0.43808208     0.14100
C483        C  0.19541945  0.64963435  0.41416430     0.35700
C484        C  0.05613144  0.60089873  0.33393418     0.35600
N485        N  0.22366384  0.65877983  0.43127840    -0.44600
N486        N  0.02814408  0.59158715  0.31656403    -0.44600
C487        C  0.14299470  0.84930439  0.14310982    -0.01000
C488        C  0.16787056  0.87186356  0.12586613    -0.12900
C489        C  0.15097213  0.89814118  0.10809817     0.01200
C490        C  0.10828008  0.90198323  0.10689523    -0.01100
C491        C  0.08340416  0.87942418  0.12413931    -0.12900
C492        C  0.10030264  0.85314673  0.14190782     0.01100
H493        H  0.20069527  0.86927633  0.12703807     0.14100
H494        H  0.05057948  0.88201148  0.12296751     0.14100
C495        C  0.07308396  0.82980040  0.15672929     0.35700
C496        C  0.17819094  0.92148819  0.09327893     0.35600
N497        N  0.05133940  0.81095754  0.16835539    -0.44600
N498        N  0.19993589  0.94033159  0.08165510    -0.44600
C499        C  0.39437724  0.60092511  0.10475131    -0.01000
C500        C  0.40043661  0.60553732  0.14639881    -0.12900
C501        C  0.38206022  0.63009291  0.16668507     0.01200
C502        C  0.35726641  0.65094277  0.14502981    -0.01100
C503        C  0.35120600  0.64633855  0.10336821    -0.12900
C504        C  0.36959418  0.62177549  0.08307636     0.01100
H505        H  0.41899540  0.58950053  0.16348199     0.14100
H506        H  0.33262877  0.66236987  0.08629599     0.14100
C507        C  0.36377927  0.61949148  0.03981856     0.35700
C508        C  0.38790905  0.63235675  0.20993601     0.35600
N509        N  0.35912713  0.61798391  0.00513189    -0.44600
N510        N  0.39260548  0.63384426  0.24461728    -0.44600
C511        C  0.39248527  0.90144998  0.39472190    -0.01000
C512        C  0.41657217  0.88143038  0.37161214    -0.12900
C513        C  0.39968995  0.85564659  0.35286291     0.01200
C514        C  0.35759052  0.84969520  0.35661100    -0.01100
C515        C  0.33349735  0.86967856  0.37978984    -0.12900
C516        C  0.35041287  0.89542110  0.39866391     0.01100
H517        H  0.44896668  0.88560633  0.36876444     0.14100
H518        H  0.30111221  0.86547483  0.38265503     0.14100
C519        C  0.32339847  0.91584867  0.42023838     0.35700
C520        C  0.42680238  0.83500940  0.33177162     0.35600
N521        N  0.30162503  0.93224993  0.43732423    -0.44600
N522        N  0.44862761  0.81839071  0.31512673    -0.44600
C523        C  0.39248134  0.59918773  0.39337121    -0.01000
C524        C  0.41724827  0.61982441  0.37224087    -0.12900
C525        C  0.40085891  0.64619425  0.35432875     0.01200
C526        C  0.35861880  0.65213154  0.35695893    -0.01100
C527        C  0.33385349  0.63150163  0.37810531    -0.12900
C528        C  0.35024737  0.60514502  0.39604885     0.01100
H529        H  0.44976213  0.61568039  0.37038833     0.14100
H530        H  0.30134164  0.63565149  0.37997154     0.14100
C531        C  0.32260872  0.58406559  0.41533144     0.35700
C532        C  0.42851102  0.66733428  0.33518423     0.35600
N533        N  0.30024116  0.56721685  0.43055852    -0.44600
N534        N  0.45088298  0.68424786  0.32008999    -0.44600
C535        C  0.10823132  0.90125732  0.39514997    -0.01000
C536        C  0.08793304  0.88706290  0.36269967    -0.12900
C537        C  0.10478301  0.86180999  0.34254223     0.01200
C538        C  0.14303372  0.85002651  0.35484792    -0.01100
C539        C  0.16333161  0.86422079  0.38729845    -0.12900
C540        C  0.14648253  0.88947436  0.40745468     0.01100
H541        H  0.05852584  0.89566611  0.35289951     0.14100
H542        H  0.19273900  0.85561792  0.39709852     0.14100
C543        C  0.16968175  0.90272832  0.44024960     0.35700
C544        C  0.08158725  0.84855918  0.30974262     0.35600
N545        N  0.18850120  0.91318182  0.46648398    -0.44600
N546        N  0.06277097  0.83810892  0.28350372    -0.44600
C547        C  0.35742070  0.85076191  0.14600237    -0.01000
C548        C  0.34140498  0.86173191  0.10933207    -0.12900
C549        C  0.35887301  0.88663439  0.08924001     0.01200
C550        C  0.39328573  0.90149812  0.10597078    -0.01100
C551        C  0.40921445  0.89061700  0.14275112    -0.12900
C552        C  0.39171419  0.86570415  0.16286688     0.01100
H553        H  0.31515339  0.85063925  0.09588535     0.14100
H554        H  0.43544458  0.90173853  0.15619443     0.14100
C555        C  0.40967340  0.85652798  0.20089499     0.35700
C556        C  0.34072641  0.89584538  0.05132731     0.35600
N557        N  0.42430911  0.84944177  0.23137871    -0.44600
N558        N  0.32588858  0.90294200  0.02094920    -0.44600
N559        N  0.45237474  0.96478537  0.92503638    -0.07000
N560        N  0.44625609  0.94181771  0.89970258    -0.59100
N561        N  0.42383651  0.53554033  0.95218140    -0.06700
N562        N  0.39758356  0.55799922  0.94600908    -0.61300
N563        N  0.45221384  0.53563035  0.92418792    -0.06300
N564        N  0.44598859  0.55833858  0.89848771    -0.59100
N565        N  0.42404210  0.96521978  0.95307164    -0.06000
N566        N  0.39800824  0.94268096  0.94736870    -0.61600
C567        C  0.41212149  0.92829917  0.91392572     0.95200
C568        C  0.41168008  0.57200839  0.91237571     0.94900
N569        N  0.45232948  0.53612029  0.57559210    -0.07200
N570        N  0.44677585  0.55936142  0.60059459    -0.59700
N571        N  0.42429812  0.96565328  0.54774510    -0.05300
N572        N  0.39869098  0.94283475  0.55320051    -0.61000
N573        N  0.45253364  0.96548073  0.57597324    -0.07200
N574        N  0.44660718  0.94250295  0.60125291    -0.60000
N575        N  0.42433623  0.53624596  0.54709989    -0.05000
N576        N  0.39922413  0.55960926  0.55204739    -0.61000
Mn577      Mn  0.42273702  0.00068599  0.50012281     1.18400
C578        C  0.41367194  0.57392451  0.58543851     0.97200
C579        C  0.41287785  0.92846628  0.58664285     0.97900
N580        N  0.04734596  0.53572087  0.92353462    -0.07200
N581        N  0.05282066  0.55827913  0.89756208    -0.63600
N582        N  0.07712788  0.96568403  0.95338676    -0.06000
N583        N  0.10294645  0.94282701  0.94798109    -0.64200
N584        N  0.04886621  0.96536783  0.92516911    -0.06800
N585        N  0.05492565  0.94229147  0.90001718    -0.63800
N586        N  0.07570243  0.53619290  0.95165629    -0.05600
N587        N  0.10104966  0.55909806  0.94529023    -0.64500
Mn588      Mn  0.00007123  0.50018809  0.92255827     1.10700
C589        C  0.08643219  0.57277528  0.91140383     0.98500
C590        C  0.08882208  0.92837067  0.91453863     0.98500
N591        N  0.04836970  0.96538961  0.57608743    -0.06800
N592        N  0.05434141  0.94243298  0.60146897    -0.62100
N593        N  0.07585070  0.53646296  0.54716689    -0.06100
N594        N  0.10102475  0.55956488  0.55305342    -0.58900
N595        N  0.04757620  0.53620122  0.57527189    -0.07400
N596        N  0.05283579  0.55918382  0.60073382    -0.61700
N597        N  0.07714511  0.96591889  0.54847594    -0.06400
N598        N  0.10344501  0.94346748  0.55464892    -0.58900
Mn599      Mn  0.00038244  0.50058245  0.57666122     1.20200
Mn600      Mn  0.07781171  0.50113410  0.49962526     1.10100
Cl601      Cl  0.00031391  0.50056686  0.49957775    -0.86900
C602        C  0.08890777  0.92904672  0.58782542     0.95500
C603        C  0.08618064  0.57368038  0.58646507     0.95300
N604        N  0.29872637  0.78621236  0.67483160    -0.07000
N605        N  0.30453781  0.80944322  0.64994782    -0.59100
N606        N  0.32703339  0.71535725  0.70310564    -0.06700
N607        N  0.35224688  0.69207741  0.69799229    -0.61300
N608        N  0.29910370  0.71554611  0.67455116    -0.06300
N609        N  0.30479988  0.69244897  0.64934764    -0.59100
N610        N  0.32683659  0.78596884  0.70317983    -0.06000
N611        N  0.35224632  0.80898346  0.69820756    -0.61600
C612        C  0.33804978  0.82355619  0.66493002     0.95200
C613        C  0.33793001  0.67789349  0.66443887     0.94900
N614        N  0.29888400  0.71565976  0.82607818    -0.07200
N615        N  0.30506923  0.69293341  0.85175858    -0.59700
N616        N  0.32654003  0.78606413  0.79773174    -0.05300
N617        N  0.35241343  0.80866499  0.80368365    -0.61000
N618        N  0.29803958  0.78636645  0.82559012    -0.08800
N619        N  0.30388320  0.80929016  0.85106875    -0.60000
N620        N  0.32731415  0.71578556  0.79813912    -0.05000
N621        N  0.35357367  0.69333313  0.80433427    -0.61000
Mn622      Mn  0.32824578  0.75074445  0.75047151     1.18400
C623        C  0.33941604  0.67928961  0.83792287     0.97200
C624        C  0.33803810  0.82293028  0.83710776     0.97900
N625        N  0.20373354  0.71520370  0.67371263    -0.07200
N626        N  0.19844394  0.69228541  0.64813611    -0.63600
N627        N  0.17413118  0.78536831  0.70152751    -0.06000
N628        N  0.14783097  0.80781966  0.69535581    -0.64200
N629        N  0.20290613  0.78589817  0.67391559    -0.06800
N630        N  0.19693366  0.80885519  0.64853486    -0.63800
N631        N  0.17533307  0.71494221  0.70169220    -0.05600
N632        N  0.15005284  0.69193906  0.69561507    -0.64500
Mn633      Mn  0.25115775  0.75078019  0.67280481     1.10700
C634        C  0.16494677  0.67785363  0.66221653     0.98500
C635        C  0.16236740  0.82224102  0.66217951     0.98500
N636        N  0.20241714  0.78592114  0.82483767    -0.06800
N637        N  0.19636038  0.80899898  0.84998798    -0.62100
N638        N  0.17513330  0.71498042  0.79721091    -0.06100
N639        N  0.14992613  0.69193758  0.80332971    -0.58900
N640        N  0.20337915  0.71542413  0.82544585    -0.07400
N641        N  0.19797684  0.69274801  0.85123130    -0.61700
N642        N  0.17415564  0.78560590  0.79661992    -0.06400
N643        N  0.14833998  0.80846491  0.80202364    -0.58900
Mn644      Mn  0.25062179  0.75087134  0.82686578     1.20200
Mn645      Mn  0.17326514  0.75016104  0.74928031     1.10100
Cl646      Cl  0.25079397  0.75062084  0.74985189    -0.86900
C647        C  0.16246575  0.82292157  0.83546512     0.95500
C648        C  0.16453551  0.67817722  0.83717882     0.95300
C649        C  0.10548935  0.60063999  0.60593514    -0.01000
C650        C  0.14664947  0.60657629  0.59781698    -0.12900
C651        C  0.16683893  0.63125874  0.61595703     0.01200
C652        C  0.14559238  0.65092802  0.64268204    -0.01100
C653        C  0.10442470  0.64498807  0.65080758    -0.12900
C654        C  0.08425127  0.62027073  0.63272476     0.01100
H655        H  0.16347348  0.59152893  0.57769219     0.14100
H656        H  0.08760951  0.66001590  0.67096474     0.14100
C657        C  0.04150984  0.61639527  0.64139098     0.35700
C658        C  0.20964742  0.63498735  0.60753971     0.35600
N659        N  0.00725405  0.61347133  0.64841832    -0.44600
N660        N  0.24397333  0.63776480  0.60075018    -0.44600
C661        C  0.14539874  0.65106053  0.85667616    -0.01000
C662        C  0.11094496  0.63806254  0.83826236    -0.12900
C663        C  0.09113517  0.61277755  0.85520709     0.01200
C664        C  0.10573743  0.59976222  0.89174433    -0.01100
C665        C  0.14025016  0.61272297  0.91011804    -0.12900
C666        C  0.16012064  0.63796219  0.89312345     0.01100
H667        H  0.09922984  0.64767220  0.81028949     0.14100
H668        H  0.15198389  0.60310698  0.93807964     0.14100
C669        C  0.19540553  0.64963653  0.91416998     0.35700
C670        C  0.05611664  0.60090735  0.83393430     0.35600
N671        N  0.22364760  0.65878186  0.93128803    -0.44600
N672        N  0.02812672  0.59159842  0.81656573    -0.44600
C673        C  0.14299807  0.84930706  0.64311364    -0.01000
C674        C  0.16787111  0.87186693  0.62586758    -0.12900
C675        C  0.15096935  0.89814219  0.60809656     0.01200
C676        C  0.10827677  0.90198112  0.60689290    -0.01100
C677        C  0.08340366  0.87942145  0.62413953    -0.12900
C678        C  0.10030547  0.85314638  0.64191117     0.01100
H679        H  0.20069612  0.86928206  0.62703983     0.14100
H680        H  0.05057866  0.88200643  0.62296749     0.14100
C681        C  0.07308971  0.82979925  0.65673579     0.35700
C682        C  0.17818520  0.92149026  0.59327480     0.35600
N683        N  0.05134782  0.81095562  0.66836469    -0.44600
N684        N  0.19992737  0.94033470  0.58164875    -0.44600
C685        C  0.39438371  0.60092917  0.60475139    -0.01000
C686        C  0.40043174  0.60553503  0.64640159    -0.12900
C687        C  0.38205197  0.63008881  0.66668846     0.01200
C688        C  0.35726754  0.65094352  0.64503082    -0.01100
C689        C  0.35121883  0.64634585  0.60336641    -0.12900
C690        C  0.36961003  0.62178437  0.58307405     0.01100
H691        H  0.41898292  0.58949414  0.66348621     0.14100
H692        H  0.33264896  0.66238115  0.58629281     0.14100
C693        C  0.36380850  0.61950679  0.53981387     0.35700
C694        C  0.38788580  0.63234510  0.70994210     0.35600
N695        N  0.35916730  0.61800430  0.50512537    -0.44600
N696        N  0.39256985  0.63382613  0.74462548    -0.44600
C697        C  0.39247966  0.90145610  0.89471191    -0.01000
C698        C  0.41656787  0.88143780  0.87160155    -0.12900
C699        C  0.39968784  0.85565272  0.85285369     0.01200
C700        C  0.35758935  0.84969854  0.85660430    -0.01100
C701        C  0.33349432  0.86968188  0.87978121    -0.12900
C702        C  0.35040762  0.89542597  0.89865336     0.01100
H703        H  0.44896201  0.88561528  0.86875329     0.14100
H704        H  0.30110961  0.86547652  0.88264710     0.14100
C705        C  0.32339166  0.91585333  0.92022618     0.35700
C706        C  0.42680191  0.83501678  0.83176231     0.35600
N707        N  0.30161697  0.93225416  0.93731120    -0.44600
N708        N  0.44862865  0.81839894  0.81511793    -0.44600
C709        C  0.39247745  0.59918150  0.89337139    -0.01000
C710        C  0.41724438  0.61981768  0.87224033    -0.12900
C711        C  0.40085553  0.64618791  0.85432903     0.01200
C712        C  0.35861560  0.65212570  0.85695942    -0.01100
C713        C  0.33385014  0.63149641  0.87810686    -0.12900
C714        C  0.35024383  0.60513982  0.89605090     0.01100
H715        H  0.44975811  0.61567328  0.87038723     0.14100
H716        H  0.30133855  0.63564709  0.87997433     0.14100
C717        C  0.32260555  0.58406217  0.91533748     0.35700
C718        C  0.42850842  0.66732844  0.83518664     0.35600
N719        N  0.30023853  0.56721501  0.93056842    -0.44600
N720        N  0.45088125  0.68424258  0.82009481    -0.44600
C721        C  0.10824382  0.90126246  0.89515165    -0.01000
C722        C  0.08794622  0.88706844  0.86270066    -0.12900
C723        C  0.10479571  0.86181516  0.84254397     0.01200
C724        C  0.14304631  0.85003158  0.85484978    -0.01100
C725        C  0.16334456  0.86422616  0.88729989    -0.12900
C726        C  0.14649494  0.88947942  0.90745670     0.01100
H727        H  0.05853901  0.89567151  0.85290032     0.14100
H728        H  0.19275175  0.85562301  0.89710014     0.14100
C729        C  0.16969213  0.90273167  0.94025423     0.35700
C730        C  0.08159826  0.84856275  0.80974666     0.35600
N731        N  0.18850983  0.91318333  0.96649113    -0.44600
N732        N  0.06278051  0.83811073  0.78351003    -0.44600
C733        C  0.35743206  0.85076023  0.64600430    -0.01000
C734        C  0.34139520  0.86174510  0.60935066    -0.12900
C735        C  0.35885891  0.88664980  0.58925949     0.01200
C736        C  0.39328965  0.90150046  0.60597376    -0.01100
C737        C  0.40923984  0.89060439  0.64273737    -0.12900
C738        C  0.39174393  0.86568925  0.66285225     0.01100
H739        H  0.31512871  0.85066340  0.59591705     0.14100
H740        H  0.43548488  0.90171505  0.65616753     0.14100
C741        C  0.40972925  0.85649541  0.70086072     0.35700
C742        C  0.34068632  0.89587854  0.55136651     0.35600
N743        N  0.42438645  0.84939487  0.73132847    -0.44600
N744        N  0.32582762  0.90298990  0.52100443    -0.44600
N745        N  0.95278613  0.46463308  0.42430901    -0.07000
N746        N  0.94691152  0.44163287  0.39896742    -0.59100
N747        N  0.92396313  0.03550232  0.45186117    -0.06700
N748        N  0.89770283  0.05795402  0.44566450    -0.61300
N749        N  0.95239457  0.03562858  0.42392335    -0.06300
N750        N  0.94621003  0.05835475  0.39824261    -0.59100
N751        N  0.92446063  0.46491721  0.45234645    -0.06000
N752        N  0.89866885  0.44222934  0.44664868    -0.61600
C753        C  0.91292263  0.42793382  0.41319953     0.95200
C754        C  0.91186202  0.07199755  0.41207661     0.94900
N755        N  0.95217490  0.03574250  0.07545112    -0.07200
N756        N  0.94647759  0.05884020  0.10065337    -0.59700
N757        N  0.92465802  0.46515324  0.04691031    -0.05300
N758        N  0.89940416  0.44205945  0.05205341    -0.61000
N759        N  0.95292394  0.46501107  0.07511294    -0.07200
N760        N  0.94735713  0.44178384  0.10008696    -0.60000
N761        N  0.92424408  0.03592890  0.04689776    -0.05000
N762        N  0.89902825  0.05920732  0.05201151    -0.61000
Mn763      Mn  0.92285628  0.50032688  0.99946525     1.18400
C764        C  0.91334481  0.07339331  0.08556374     0.97200
C765        C  0.91386923  0.42753763  0.08526281     0.97900
N766        N  0.54746070  0.03561141  0.42418442    -0.07200
N767        N  0.55285231  0.05824821  0.39830847    -0.63600
N768        N  0.57694813  0.46558433  0.45313341    -0.06000
N769        N  0.60296159  0.44288570  0.44749012    -0.64200
N770        N  0.54856714  0.46522777  0.42504001    -0.06800
N771        N  0.55468017  0.44223437  0.39973685    -0.63800
N772        N  0.57584399  0.03604716  0.45229114    -0.05600
N773        N  0.60113551  0.05902142  0.44597368    -0.64500
Mn774      Mn  0.49998822  0.00017096  0.42321739     1.10700
C775        C  0.58644153  0.07277729  0.41214230     0.98500
C776        C  0.58881678  0.42850240  0.41400980     0.98500
N777        N  0.54837705  0.46554535  0.07634224    -0.06800
N778        N  0.55414117  0.44245920  0.10156785    -0.62100
N779        N  0.57597259  0.03620896  0.04786546    -0.06100
N780        N  0.60123202  0.05927255  0.05369662    -0.58900
N781        N  0.54764465  0.03611824  0.07591224    -0.07400
N782        N  0.55294295  0.05914555  0.10127582    -0.61700
N783        N  0.57650022  0.46550178  0.04804950    -0.06400
N784        N  0.60174423  0.44222273  0.05322613    -0.58900
Mn785      Mn  0.50023805  0.00078441  0.07738732     1.20200
Mn786      Mn  0.57765531  0.00084845  0.00026913     1.10100
Cl787      Cl  0.50018048  0.00063602  0.00023944    -0.86900
C788        C  0.58737129  0.42798094  0.08661277     0.95500
C789        C  0.58637154  0.07351279  0.08702021     0.95300
N790        N  0.79885465  0.28585669  0.17414781    -0.07000
N791        N  0.80489517  0.30885464  0.14892702    -0.59100
N792        N  0.82694734  0.21504814  0.20290628    -0.06700
N793        N  0.85206326  0.19168732  0.19795696    -0.61300
N794        N  0.79895255  0.21517108  0.17441561    -0.06300
N795        N  0.80450861  0.19193031  0.14941315    -0.59100
N796        N  0.82699264  0.28566131  0.20247336    -0.06000
N797        N  0.85263758  0.30848994  0.19716836    -0.61600
C798        C  0.83853874  0.32290491  0.16372420     0.95200
C799        C  0.83761633  0.17737038  0.16456655     0.94900
N800        N  0.79906620  0.21565705  0.32581761    -0.07200
N801        N  0.80529026  0.19294789  0.35151656    -0.59700
N802        N  0.82672095  0.28598716  0.29703505    -0.05300
N803        N  0.85260251  0.30861298  0.30270384    -0.61000
N804        N  0.79834568  0.28636951  0.32502482    -0.08800
N805        N  0.80428805  0.30939435  0.35031034    -0.60000
N806        N  0.82744452  0.21574804  0.29782510    -0.05000
N807        N  0.85369761  0.19328918  0.30399717    -0.61000
Mn808      Mn  0.82832634  0.25057395  0.25000765     1.18400
C809        C  0.83959943  0.17927899  0.33762907     0.97200
C810        C  0.83836581  0.32298733  0.33608675     0.97900
N811        N  0.70367408  0.21516619  0.17382808    -0.07200
N812        N  0.69844457  0.19214549  0.14843107    -0.63600
N813        N  0.67477978  0.28578730  0.20195761    -0.06000
N814        N  0.64953537  0.30906609  0.19678075    -0.64200
N815        N  0.70290290  0.28574381  0.17366483    -0.06800
N816        N  0.69713839  0.30882976  0.14843898    -0.63800
N817        N  0.67528135  0.21504191  0.20181245    -0.05600
N818        N  0.65005206  0.19197485  0.19590390    -0.64500
Mn819      Mn  0.75109461  0.25053281  0.17254491     1.10700
C820        C  0.66498762  0.17775862  0.16260084     0.98500
C821        C  0.66390807  0.32330783  0.16339395     0.98500
N822        N  0.70271202  0.28606239  0.32496620    -0.06800
N823        N  0.69659857  0.30905561  0.35026952    -0.62100
N824        N  0.67510103  0.21506346  0.29739040    -0.06100
N825        N  0.64976358  0.19210305  0.30364918    -0.58900
N826        N  0.70343256  0.21546219  0.32555060    -0.07400
N827        N  0.69795819  0.19282691  0.35140434    -0.61700
N828        N  0.67433099  0.28570551  0.29687277    -0.06400
N829        N  0.64831700  0.30840381  0.30251644    -0.58900
Mn830      Mn  0.75086176  0.25091403  0.32671826     1.20200
Mn831      Mn  0.67342797  0.25033527  0.24946258     1.10100
Cl832      Cl  0.75089366  0.25057108  0.24968980    -0.86900
C833        C  0.66246162  0.32278719  0.33599688     0.95500
C834        C  0.66437953  0.17832492  0.33750297     0.95300
C835        C  0.60566514  0.10049291  0.10642341    -0.01000
C836        C  0.64678038  0.10648443  0.09820090    -0.12900
C837        C  0.66693234  0.13120614  0.11627062     0.01200
C838        C  0.64571432  0.15078454  0.14315499    -0.01100
C839        C  0.60459916  0.14478794  0.15137847    -0.12900
C840        C  0.58443424  0.12009355  0.13326780     0.01100
H841        H  0.66357516  0.09149030  0.07798252     0.14100
H842        H  0.58779622  0.15978195  0.17159048     0.14100
C843        C  0.54169382  0.11624352  0.14195311     0.35700
C844        C  0.70961778  0.13515528  0.10741325     0.35600
N845        N  0.50743627  0.11336934  0.14900751    -0.44600
N846        N  0.74382270  0.13812215  0.10018053    -0.44600
C847        C  0.64515466  0.15124115  0.35716591    -0.01000
C848        C  0.61031533  0.13845438  0.33918988    -0.12900
C849        C  0.59055246  0.11316274  0.35626275     0.01200
C850        C  0.60560948  0.09987822  0.39247189    -0.01100
C851        C  0.64043403  0.11267458  0.41045372    -0.12900
C852        C  0.66021687  0.13794366  0.39336673     0.01100
H853        H  0.59826077  0.14823741  0.31146534     0.14100
H854        H  0.65249594  0.10289254  0.43817613     0.14100
C855        C  0.69577566  0.14945726  0.41409488     0.35700
C856        C  0.55507442  0.10156563  0.33548026     0.35600
N857        N  0.72421880  0.15848414  0.43098915    -0.44600
N858        N  0.52670919  0.09244747  0.31854199    -0.44600
C859        C  0.64463058  0.35046883  0.14440362    -0.01000
C860        C  0.64527515  0.35313223  0.10206565    -0.12900
C861        C  0.62629939  0.37785723  0.08255061     0.01200
C862        C  0.60664856  0.40081985  0.10560300    -0.01100
C863        C  0.60600397  0.39815645  0.14794094    -0.12900
C864        C  0.62497981  0.37343150  0.16745600     0.01100
H865        H  0.65982383  0.33542836  0.08404976     0.14100
H866        H  0.59145531  0.41586034  0.16595680     0.14100
C867        C  0.62572011  0.37316486  0.21116161     0.35700
C868        C  0.62555920  0.37812407  0.03884503     0.35600
N869        N  0.62660025  0.37322294  0.24618277    -0.44600
N870        N  0.62467902  0.37806623  0.00382389    -0.44600
C871        C  0.89400784  0.10034458  0.10497150    -0.01000
C872        C  0.90009795  0.10496291  0.14662627    -0.12900
C873        C  0.88171467  0.12952723  0.16691977     0.01200
C874        C  0.85690496  0.15036501  0.14525333    -0.01100
C875        C  0.85081580  0.14573867  0.10361266    -0.12900
C876        C  0.86918679  0.12118152  0.08332483     0.01100
H877        H  0.91869601  0.08894188  0.16369291     0.14100
H878        H  0.83223614  0.16176517  0.08653509     0.14100
C879        C  0.86329961  0.11890188  0.04008035     0.35700
C880        C  0.88756594  0.13182590  0.21017148     0.35600
N881        N  0.85857097  0.11740152  0.00540428    -0.44600
N882        N  0.89224847  0.13334515  0.24485331    -0.44600
C883        C  0.89326317  0.40121313  0.39376681    -0.01000
C884        C  0.91731676  0.38107402  0.37079221    -0.12900
C885        C  0.90024568  0.35545234  0.35180557     0.01200
C886        C  0.85807258  0.34972550  0.35541350    -0.01100
C887        C  0.83402532  0.36988136  0.37834788    -0.12900
C888        C  0.85107419  0.39553773  0.39724412     0.01100
H889        H  0.94976905  0.38507605  0.36815531     0.14100
H890        H  0.80156611  0.36589957  0.38095820     0.14100
C891        C  0.82409582  0.41631309  0.41827618     0.35700
C892        C  0.92714295  0.33484136  0.33038369     0.35600
N893        N  0.80244360  0.43302662  0.43498226    -0.44600
N894        N  0.94867936  0.31827091  0.31328462    -0.44600
C895        C  0.89266307  0.09916091  0.39303983    -0.01000
C896        C  0.91743310  0.11980199  0.37191802    -0.12900
C897        C  0.90103897  0.14615927  0.35397637     0.01200
C898        C  0.85880113  0.15210570  0.35663206    -0.01100
C899        C  0.83402957  0.13145757  0.37773712    -0.12900
C900        C  0.85041892  0.10508672  0.39564621     0.01100
H901        H  0.94994781  0.11566017  0.37007016     0.14100
H902        H  0.80151276  0.13559319  0.37957080     0.14100
C903        C  0.82276404  0.08393264  0.41475961     0.35700
C904        C  0.92867952  0.16725086  0.33471960     0.35600
N905        N  0.80038969  0.06700745  0.42982761    -0.44600
N906        N  0.95104831  0.18410944  0.31951330    -0.44600
C907        C  0.60832551  0.40147417  0.39464679    -0.01000
C908        C  0.58520949  0.38375193  0.36758673    -0.12900
C909        C  0.60194036  0.35815011  0.34808338     0.01200
C910        C  0.64295269  0.34981525  0.35536030    -0.01100
C911        C  0.66606865  0.36753741  0.38242058    -0.12900
C912        C  0.64933778  0.39313922  0.40192397     0.01100
H913        H  0.55364068  0.38969741  0.36188456     0.14100
H914        H  0.69763740  0.36159189  0.38812289     0.14100
C915        C  0.67554811  0.41072330  0.42825329     0.35700
C916        C  0.57572990  0.34056577  0.32175457     0.35600
N917        N  0.69664428  0.42473132  0.44935834    -0.44600
N918        N  0.55463346  0.32655747  0.30065014    -0.44600
C919        C  0.85823957  0.34984101  0.14445079    -0.01000
C920        C  0.84478257  0.35901113  0.10594742    -0.12900
C921        C  0.86253896  0.38379348  0.08579533     0.01200
C922        C  0.89458259  0.40034271  0.10432474    -0.01100
C923        C  0.90816758  0.39108840  0.14275236    -0.12900
C924        C  0.89035964  0.36633438  0.16293393     0.01100
H925        H  0.82039388  0.34657811  0.09114074     0.14100
H926        H  0.93255318  0.40352707  0.15755686     0.14100
C927        C  0.90534928  0.35918479  0.20291867     0.35700
C928        C  0.84740349  0.39103625  0.04588595     0.35600
N929        N  0.91759650  0.35379875  0.23499585    -0.44600
N930        N  0.83500924  0.39653419  0.01389381    -0.44600
N931        N  0.95277640  0.46463272  0.92430208    -0.07000
N932        N  0.94689921  0.44163514  0.89895725    -0.59100
N933        N  0.92396341  0.03549865  0.95186367    -0.06700
N934        N  0.89770141  0.05794910  0.94566632    -0.61300
N935        N  0.95239461  0.03562527  0.92392567    -0.06300
N936        N  0.94620826  0.05835057  0.89824405    -0.59100
N937        N  0.92445163  0.46491598  0.95234021    -0.06000
N938        N  0.89865737  0.44223009  0.94663945    -0.61600
C939        C  0.91290946  0.42793677  0.91318793     0.95200
C940        C  0.91185938  0.07199235  0.91207775     0.94900
N941        N  0.95217292  0.03574202  0.57544897    -0.07200
N942        N  0.94647632  0.05883923  0.60065222    -0.59700
N943        N  0.92466085  0.46515638  0.54691583    -0.05300
N944        N  0.89940470  0.44206415  0.55205944    -0.61000
N945        N  0.95292630  0.46501296  0.57511871    -0.07200
N946        N  0.94735705  0.44178629  0.60009307    -0.60000
N947        N  0.92424275  0.03593019  0.54689500    -0.05000
N948        N  0.89902821  0.05920928  0.55200901    -0.61000
Mn949      Mn  0.92286299  0.50032948  0.49946979     1.18400
C950        C  0.91334487  0.07339382  0.58556210     0.97200
C951        C  0.91386722  0.42754202  0.58526975     0.97900
N952        N  0.54745490  0.03561353  0.92418755    -0.07200
N953        N  0.55284617  0.05825082  0.89831240    -0.63600
N954        N  0.57694990  0.46558267  0.95313504    -0.06000
N955        N  0.60296420  0.44288443  0.94749238    -0.64200
N956        N  0.54856888  0.46522505  0.92504164    -0.06800
N957        N  0.55468272  0.44223129  0.89973925    -0.63800
N958        N  0.57583892  0.03604827  0.95229351    -0.05600
N959        N  0.60113064  0.05902246  0.94597638    -0.64500
Mn960      Mn  0.49998257  0.00017356  0.92321896     1.10700
C961        C  0.58643594  0.07277922  0.91214592     0.98500
C962        C  0.58881979  0.42850018  0.91401258     0.98500
N963        N  0.54837472  0.46554390  0.57633998    -0.06800
N964        N  0.55413917  0.44245770  0.60156549    -0.62100
N965        N  0.57597599  0.03620957  0.54786361    -0.06100
N966        N  0.60123538  0.05927300  0.55369591    -0.58900
N967        N  0.54764829  0.03611817  0.57591048    -0.07400
N968        N  0.55294703  0.05914428  0.60127546    -0.61700
N969        N  0.57649843  0.46550102  0.54804773    -0.06400
N970        N  0.60174307  0.44222235  0.55322464    -0.58900
Mn971      Mn  0.50024159  0.00078567  0.57738572     1.20200
Mn972      Mn  0.57765981  0.00084847  0.50026831     1.10100
Cl973      Cl  0.50018514  0.00063587  0.50023792    -0.86900
C974        C  0.58736999  0.42798001  0.58661088     0.95500
C975        C  0.58637544  0.07351200  0.58702084     0.95300
N976        N  0.79885832  0.28585490  0.67415008    -0.07000
N977        N  0.80490092  0.30885293  0.64893004    -0.59100
N978        N  0.82694569  0.21504424  0.70290677    -0.06700
N979        N  0.85205909  0.19168190  0.69795815    -0.61300
N980        N  0.79895167  0.21516922  0.67441537    -0.06300
N981        N  0.80450575  0.19192820  0.64941288    -0.59100
N982        N  0.82699704  0.28565698  0.70247471    -0.06000
N983        N  0.85264477  0.30848381  0.69716949    -0.61600
C984        C  0.83854735  0.32290028  0.66372581     0.95200
C985        C  0.83761132  0.17736613  0.66456739     0.94900
N986        N  0.79906450  0.21565215  0.82581755    -0.07200
N987        N  0.80528723  0.19294261  0.85151630    -0.59700
N988        N  0.82672158  0.28598206  0.79703460    -0.05300
N989        N  0.85259955  0.30861068  0.80269895    -0.61000
N990        N  0.79834615  0.28636502  0.82502413    -0.08800
N991        N  0.80428480  0.30939304  0.85030528    -0.60000
N992        N  0.82744289  0.21574252  0.79782515    -0.05000
N993        N  0.85369480  0.19328286  0.80399715    -0.61000
Mn994      Mn  0.82832700  0.25056902  0.75000826     1.18400
C995        C  0.83959574  0.17927282  0.83762883     0.97200
C996        C  0.83836053  0.32298718  0.83607916     0.97900
N997        N  0.70367448  0.21516849  0.67382672    -0.07200
N998        N  0.69844509  0.19214878  0.64842845    -0.63600
N999        N  0.67478217  0.28578819  0.70195901    -0.06000
N1000       N  0.64953736  0.30906673  0.69678184    -0.64200
N1001       N  0.70290588  0.28574528  0.67366676    -0.06800
N1002       N  0.69714126  0.30883131  0.64844099    -0.63800
N1003       N  0.67528242  0.21504288  0.70181162    -0.05600
N1004       N  0.65005403  0.19197546  0.69590241    -0.64500
Mn1005     Mn  0.75109615  0.25053313  0.67254554     1.10700
C1006       C  0.66498903  0.17776079  0.66259784     0.98500
C1007       C  0.66391035  0.32330897  0.66339547     0.98500
N1008       N  0.70271391  0.28605987  0.82496759    -0.06800
N1009       N  0.69660125  0.30905270  0.85027171    -0.62100
N1010       N  0.67510023  0.21506200  0.79739027    -0.06100
N1011       N  0.64976122  0.19210264  0.80364989    -0.58900
N1012       N  0.70343177  0.21546001  0.82555049    -0.07400
N1013       N  0.69795606  0.19282541  0.85140488    -0.61700
N1014       N  0.67433298  0.28570410  0.79687407    -0.06400
N1015       N  0.64831986  0.30840282  0.80251835    -0.58900
Mn1016     Mn  0.75086199  0.25091043  0.82671849     1.20200
Mn1017     Mn  0.67342897  0.25033490  0.74946294     1.10100
Cl1018     Cl  0.75089442  0.25056888  0.74969020    -0.86900
C1019       C  0.66246485  0.32278520  0.83599937     0.95500
C1020       C  0.66437643  0.17832452  0.83750412     0.95300
C1021       C  0.60566841  0.10049213  0.60642502    -0.01000
C1022       C  0.64677339  0.10650020  0.59817330    -0.12900
C1023       C  0.66692512  0.13122306  0.61624007     0.01200
C1024       C  0.64571710  0.15078607  0.64315202    -0.01100
C1025       C  0.60461243  0.14477268  0.65140511    -0.12900
C1026       C  0.58444782  0.12007696  0.63329792     0.01100
H1027       H  0.66356088  0.09151869  0.57793272     0.14100
H1028       H  0.58781680  0.15975399  0.67163946     0.14100
C1029       C  0.54171820  0.11620830  0.64202085     0.35700
C1030       C  0.70960019  0.13518998  0.60734751     0.35600
N1031       N  0.50746951  0.11331901  0.64910649    -0.44600
N1032       N  0.74379663  0.13817122  0.60008592    -0.44600
C1033       C  0.64515020  0.15124186  0.85716833    -0.01000
C1034       C  0.61031228  0.13845401  0.83919105    -0.12900
C1035       C  0.59054882  0.11316292  0.85626458     0.01200
C1036       C  0.60560393  0.09988003  0.89247555    -0.01100
C1037       C  0.64042665  0.11267776  0.91045902    -0.12900
C1038       C  0.66020995  0.13794639  0.89337154     0.01100
H1039       H  0.59825952  0.14823560  0.81146484     0.14100
H1040       H  0.65248670  0.10289716  0.93818312     0.14100
C1041       C  0.69576643  0.14946175  0.91410194     0.35700
C1042       C  0.55507239  0.10156443  0.83548068     0.35600
N1043       N  0.72420764  0.15848994  0.93099820    -0.44600
N1044       N  0.52670839  0.09244505  0.81854155    -0.44600
C1045       C  0.64463195  0.35046951  0.64440434    -0.01000
C1046       C  0.64528060  0.35313418  0.60206653    -0.12900
C1047       C  0.62630420  0.37785858  0.58255060     0.01200
C1048       C  0.60664835  0.40081944  0.60560189    -0.01100
C1049       C  0.60599969  0.39815478  0.64793967    -0.12900
C1050       C  0.62497623  0.37343046  0.66745562     0.01100
H1051       H  0.65983309  0.33543171  0.58405129     0.14100
H1052       H  0.59144721  0.41585725  0.66595490     0.14100
C1053       C  0.62571194  0.37316279  0.71116127     0.35700
C1054       C  0.62556879  0.37812648  0.53884497     0.35600
N1055       N  0.62658839  0.37322004  0.74618251    -0.44600
N1056       N  0.62469248  0.37806948  0.50382373    -0.44600
C1057       C  0.89400747  0.10034412  0.60497081    -0.01000
C1058       C  0.90008661  0.10495614  0.64662827    -0.12900
C1059       C  0.88170027  0.12951878  0.66692245     0.01200
C1060       C  0.85689923  0.15036106  0.64525383    -0.01100
C1061       C  0.85082067  0.14574081  0.60361061    -0.12900
C1062       C  0.86919500  0.12118556  0.58332206     0.01100
H1063       H  0.91867784  0.08893135  0.66369611     0.14100
H1064       H  0.83224796  0.16177111  0.58653179     0.14100
C1065       C  0.86332183  0.11891313  0.54007504     0.35700
C1066       C  0.88753873  0.13181116  0.71017648     0.35600
N1067       N  0.85860468  0.11741892  0.50539698    -0.44600
N1068       N  0.89221074  0.13332537  0.74486009    -0.44600
C1069       C  0.89325011  0.40121744  0.89375290    -0.01000
C1070       C  0.91730514  0.38107919  0.87077867    -0.12900
C1071       C  0.90023623  0.35545637  0.85179356     0.01200
C1072       C  0.85806357  0.34972836  0.85540111    -0.01100
C1073       C  0.83401414  0.36988446  0.87833287    -0.12900
C1074       C  0.85106134  0.39554126  0.89722941     0.01100
H1075       H  0.94975745  0.38508168  0.86814301     0.14100
H1076       H  0.80155521  0.36590134  0.88094310     0.14100
C1077       C  0.82408242  0.41631417  0.91826504     0.35700
C1078       C  0.92713608  0.33484347  0.83037817     0.35600
N1079       N  0.80242998  0.43302469  0.93497606    -0.44600
N1080       N  0.94867496  0.31827042  0.81328661    -0.44600
C1081       C  0.89265957  0.09915531  0.89304096    -0.01000
C1082       C  0.91742933  0.11979649  0.87191914    -0.12900
C1083       C  0.90103510  0.14615378  0.85397787     0.01200
C1084       C  0.85879710  0.15209965  0.85663256    -0.01100
C1085       C  0.83402566  0.13145156  0.87773797    -0.12900
C1086       C  0.85041544  0.10508116  0.89564808     0.01100
H1087       H  0.94994415  0.11565506  0.87007166     0.14100
H1088       H  0.80150886  0.13558720  0.87957183     0.14100
C1089       C  0.82276135  0.08392818  0.91476479     0.35700
C1090       C  0.92867601  0.16724655  0.83472396     0.35600
N1091       N  0.80038788  0.06700404  0.92983616    -0.44600
N1092       N  0.95104535  0.18410625  0.81952063    -0.44600
C1093       C  0.60832882  0.40147160  0.89465052    -0.01000
C1094       C  0.58521285  0.38374922  0.86759058    -0.12900
C1095       C  0.60194349  0.35814710  0.84808789     0.01200
C1096       C  0.64295613  0.34981282  0.85536383    -0.01100
C1097       C  0.66607203  0.36753475  0.88242444    -0.12900
C1098       C  0.64934081  0.39313612  0.90192867     0.01100
H1099       H  0.55364398  0.38969451  0.86188850     0.14100
H1100       H  0.69764071  0.36158905  0.88812688     0.14100
C1101       C  0.67554998  0.41071841  0.92826121     0.35700
C1102       C  0.57573199  0.34056105  0.82176209     0.35600
N1103       N  0.69664518  0.42472462  0.94936932    -0.44600
N1104       N  0.55463464  0.32655099  0.80066061    -0.44600
C1105       C  0.85824837  0.34983737  0.64445351    -0.01000
C1106       C  0.84474403  0.35903967  0.60597978    -0.12900
C1107       C  0.86249291  0.38382610  0.58583005     0.01200
C1108       C  0.89458034  0.40034605  0.60433052    -0.01100
C1109       C  0.90821276  0.39105943  0.64272822    -0.12900
C1110       C  0.89041126  0.36630194  0.66290821     0.01100
H1111       H  0.82032003  0.34663085  0.59119535     0.14100
H1112       H  0.93263360  0.40347401  0.65751042     0.14100
C1113       C  0.90545804  0.35911643  0.70286054     0.35700
C1114       C  0.84729610  0.39110738  0.54595590     0.35600
N1115       N  0.91775211  0.35370130  0.73491154    -0.44600
N1116       N  0.83485113  0.39663720  0.51399272    -0.44600
N1117       N  0.95323820  0.96492207  0.42441030    -0.07000
N1118       N  0.94739435  0.94199887  0.39893091    -0.59100
N1119       N  0.92345753  0.53521762  0.45166059    -0.06700
N1120       N  0.89724513  0.55773277  0.44561052    -0.61300
N1121       N  0.95177878  0.53533112  0.42360803    -0.06300
N1122       N  0.94557373  0.55809421  0.39800482    -0.59100
N1123       N  0.92473736  0.96522428  0.45226826    -0.06000
N1124       N  0.89886346  0.94262393  0.44631536    -0.61600
C1125       C  0.91323889  0.92835901  0.41289106     0.95200
C1126       C  0.91133430  0.57178491  0.41199083     0.94900
N1127       N  0.95232627  0.53576155  0.07504395    -0.07200
N1128       N  0.94687685  0.55901920  0.10004659    -0.59700
N1129       N  0.92444768  0.96531761  0.04682350    -0.05300
N1130       N  0.89904166  0.94230052  0.05179328    -0.61000
N1131       N  0.95255707  0.96507586  0.07517261    -0.07200
N1132       N  0.94674864  0.94184348  0.10005466    -0.60000
N1133       N  0.92423187  0.53586000  0.04665353    -0.05000
N1134       N  0.89914318  0.55923553  0.05168615    -0.61000
Mn1135     Mn  0.92303462  0.00054096  0.99953209     1.18400
C1136       C  0.91371450  0.57357712  0.08502037     0.97200
C1137       C  0.91323972  0.92772784  0.08506997     0.97900
N1138       N  0.54784871  0.53582770  0.42445501    -0.07200
N1139       N  0.55332461  0.55846177  0.39859985    -0.63600
N1140       N  0.57660993  0.96544144  0.45293884    -0.06000
N1141       N  0.60271561  0.94281778  0.44723959    -0.64200
N1142       N  0.54812238  0.96498755  0.42494765    -0.06800
N1143       N  0.55424187  0.94197885  0.39965949    -0.63800
N1144       N  0.57618016  0.53622622  0.45261531    -0.05600
N1145       N  0.60151929  0.55918540  0.44635500    -0.64500
Mn1146     Mn  0.50041846  0.50037712  0.42328819     1.10700
C1147       C  0.58690442  0.57296275  0.41250008     0.98500
C1148       C  0.58850819  0.92837821  0.41384043     0.98500
N1149       N  0.54840964  0.96553371  0.07620246    -0.06800
N1150       N  0.55419864  0.94245975  0.10144223    -0.62100
N1151       N  0.57599859  0.53624702  0.04819321    -0.06100
N1152       N  0.60122742  0.55931445  0.05410085    -0.58900
N1153       N  0.54760589  0.53612294  0.07617761    -0.07400
N1154       N  0.55283463  0.55914429  0.10157363    -0.61700
N1155       N  0.57644496  0.96542536  0.04782590    -0.06400
N1156       N  0.60165015  0.94210901  0.05295780    -0.58900
Mn1157     Mn  0.50018565  0.50075654  0.07746225     1.20200
Mn1158     Mn  0.57785236  0.50095335  0.00054407     1.10100
Cl1159     Cl  0.50038674  0.50071755  0.00031719    -0.86900
C1160       C  0.58734775  0.92791524  0.08641627     0.95500
C1161       C  0.58629116  0.57353115  0.08740315     0.95300
N1162       N  0.79874700  0.78580841  0.17402790    -0.07000
N1163       N  0.80467473  0.80878564  0.14874757    -0.59100
N1164       N  0.82700751  0.71502825  0.20280344    -0.06700
N1165       N  0.85221514  0.69173565  0.19772920    -0.61300
N1166       N  0.79893722  0.71511965  0.17438232    -0.06300
N1167       N  0.80454388  0.69191905  0.14930936    -0.59100
N1168       N  0.82698255  0.78563560  0.20225611    -0.06000
N1169       N  0.85259086  0.80845332  0.19680014    -0.61600
C1170       C  0.83840451  0.82282180  0.16335766     0.95200
C1171       C  0.83776059  0.67741438  0.16434286     0.94900
N1172       N  0.79939912  0.71580685  0.32581878    -0.07200
N1173       N  0.80552133  0.69308252  0.35150761    -0.59700
N1174       N  0.82723472  0.78606865  0.29692952    -0.05300
N1175       N  0.85326845  0.80860769  0.30263138    -0.61000
N1176       N  0.79890226  0.78650363  0.32496499    -0.08800
N1177       N  0.80502095  0.80947183  0.35029785    -0.60000
N1178       N  0.82773406  0.71580851  0.29777949    -0.05000
N1179       N  0.85387315  0.69326331  0.30392366    -0.61000
Mn1180     Mn  0.82854443  0.75060211  0.24987746     1.18400
C1181       C  0.83972830  0.67930515  0.33758468     0.97200
C1182       C  0.83915532  0.82299015  0.33607390     0.97900
N1183       N  0.70363187  0.71516948  0.17409255    -0.07200
N1184       N  0.69833351  0.69214179  0.14872974    -0.63600
N1185       N  0.67483181  0.78586227  0.20217689    -0.06000
N1186       N  0.64962619  0.80917826  0.19704447    -0.64200
N1187       N  0.70286717  0.78575387  0.17380035    -0.06800
N1188       N  0.69707773  0.80882746  0.14856008    -0.63800
N1189       N  0.67530407  0.71507914  0.20213950    -0.05600
N1190       N  0.65004445  0.69201559  0.19630918    -0.64500
Mn1191     Mn  0.75103861  0.75050302  0.17261556     1.10700
C1192       C  0.66490506  0.67777492  0.16298612     0.98500
C1193       C  0.66392831  0.82337177  0.16358572     0.98500
N1194       N  0.70315992  0.78629984  0.32505547    -0.06800
N1195       N  0.69704040  0.80930839  0.35034401    -0.62100
N1196       N  0.67543779  0.71524084  0.29771126    -0.06100
N1197       N  0.65014591  0.69226687  0.30402921    -0.58900
N1198       N  0.70382189  0.71567595  0.32581714    -0.07400
N1199       N  0.69843051  0.69303917  0.35169306    -0.61700
N1200       N  0.67467232  0.78584640  0.29706429    -0.06400
N1201       N  0.64856663  0.80846997  0.30276395    -0.58900
Mn1202     Mn  0.75129442  0.75111578  0.32678425     1.20200
Mn1203     Mn  0.67362149  0.75043992  0.24973454     1.10100
Cl1204     Cl  0.75109633  0.75065218  0.24976356    -0.86900
C1205       C  0.66277400  0.82290925  0.33616327     0.95500
C1206       C  0.66484044  0.67851078  0.33786022     0.95300
C1207       C  0.60556377  0.60050510  0.10684861    -0.01000
C1208       C  0.64668335  0.60649467  0.09863834    -0.12900
C1209       C  0.66684768  0.63118839  0.11675090     0.01200
C1210       C  0.64561161  0.65079517  0.14358322    -0.01100
C1211       C  0.60449187  0.64481074  0.15179251    -0.12900
C1212       C  0.58434038  0.62008976  0.13372069     0.01100
H1213       H  0.66348989  0.59149544  0.07843601     0.14100
H1214       H  0.58769353  0.65981013  0.17200124     0.14100
C1215       C  0.54165005  0.61614809  0.14256130     0.35700
C1216       C  0.70959266  0.63503125  0.10808161     0.35600
N1217       N  0.50744117  0.61318701  0.14977999    -0.44600
N1218       N  0.74385386  0.63790006  0.10104066    -0.44600
C1219       C  0.64567323  0.65140964  0.35753057    -0.01000
C1220       C  0.61086195  0.63860257  0.33953679    -0.12900
C1221       C  0.59108056  0.61333255  0.35662294     0.01200
C1222       C  0.60613015  0.60004556  0.39283573    -0.01100
C1223       C  0.64095671  0.61284270  0.41082325    -0.12900
C1224       C  0.66071834  0.63813511  0.39375096     0.01100
H1225       H  0.59881012  0.64837634  0.31180499     0.14100
H1226       H  0.65300128  0.60306790  0.43855712     0.14100
C1227       C  0.69618126  0.64974461  0.41454693     0.35700
C1228       C  0.55553790  0.60180588  0.33588010     0.35600
N1229       N  0.72453439  0.65887291  0.43149569    -0.44600
N1230       N  0.52710785  0.59276844  0.31897390    -0.44600
C1231       C  0.64461508  0.85049991  0.14451445    -0.01000
C1232       C  0.64518139  0.85304034  0.10215275    -0.12900
C1233       C  0.62623268  0.87773146  0.08252130     0.01200
C1234       C  0.60666066  0.90078688  0.10548734    -0.01100
C1235       C  0.60609425  0.89824639  0.14784904    -0.12900
C1236       C  0.62504250  0.87355507  0.16748045     0.01100
H1237       H  0.65967370  0.83527004  0.08420604     0.14100
H1238       H  0.59160188  0.91601662  0.16579577     0.14100
C1239       C  0.62573736  0.87338731  0.21120154     0.35700
C1240       C  0.62553599  0.87789840  0.03880023     0.35600
N1241       N  0.62650065  0.87352775  0.24623129    -0.44600
N1242       N  0.62477102  0.87775697  0.00377051    -0.44600
C1243       C  0.89448737  0.60059665  0.10442248    -0.01000
C1244       C  0.90080179  0.60529307  0.14602536    -0.12900
C1245       C  0.88235508  0.62979180  0.16640495     0.01200
C1246       C  0.85719825  0.65049530  0.14489202    -0.01100
C1247       C  0.85095934  0.64583397  0.10326935    -0.12900
C1248       C  0.86945683  0.62135819  0.08288388     0.01100
H1249       H  0.91960342  0.58935685  0.16301022     0.14100
H1250       H  0.83216818  0.66177362  0.08627982     0.14100
C1251       C  0.86351640  0.61909836  0.03964525     0.35700
C1252       C  0.88852744  0.63213267  0.20960762     0.35600
N1253       N  0.85877406  0.61763084  0.00496836    -0.44600
N1254       N  0.89351403  0.63365070  0.24424816    -0.44600
C1255       C  0.89368743  0.90159114  0.39339396    -0.01000
C1256       C  0.91778224  0.88160819  0.37021625    -0.12900
C1257       C  0.90086886  0.85586419  0.35134402     0.01200
C1258       C  0.85879709  0.84983356  0.35528670    -0.01100
C1259       C  0.83470903  0.86985160  0.37839758    -0.12900
C1260       C  0.85158902  0.89563677  0.39714510     0.01100
H1261       H  0.95016681  0.88581382  0.36734972     0.14100
H1262       H  0.80231502  0.86567384  0.38124652     0.14100
C1263       C  0.82447488  0.91627264  0.41823651     0.35700
C1264       C  0.92788452  0.83543757  0.32976959     0.35600
N1265       N  0.80264789  0.93289042  0.43488069    -0.44600
N1266       N  0.94965891  0.81903733  0.31268323    -0.44600
C1267       C  0.89228790  0.59905652  0.39309522    -0.01000
C1268       C  0.91721698  0.61968666  0.37213456    -0.12900
C1269       C  0.90098748  0.64608818  0.35417156     0.01200
C1270       C  0.85875598  0.65207678  0.35660570    -0.01100
C1271       C  0.83382707  0.63146032  0.37759319    -0.12900
C1272       C  0.85006267  0.60506229  0.39557516     0.01100
H1273       H  0.94972967  0.61549497  0.37042178     0.14100
H1274       H  0.80131545  0.63565342  0.37929640     0.14100
C1275       C  0.82228851  0.58397653  0.41464734     0.35700
C1276       C  0.92878119  0.66719744  0.33517072     0.35600
N1277       N  0.79981104  0.56711794  0.42969362    -0.44600
N1278       N  0.95128177  0.68407452  0.32019488    -0.44600
C1279       C  0.60816114  0.90144504  0.39448977    -0.01000
C1280       C  0.58454236  0.88258700  0.36929364    -0.12900
C1281       C  0.60145836  0.85697742  0.34996768     0.01200
C1282       C  0.64312102  0.84984253  0.35551384    -0.01100
C1283       C  0.66673980  0.86870071  0.38070983    -0.12900
C1284       C  0.64982394  0.89431065  0.40003510     0.01100
H1285       H  0.55247491  0.88762288  0.36501782     0.14100
H1286       H  0.69880733  0.86366499  0.38498541     0.14100
C1287       C  0.67645582  0.91327193  0.42417373     0.35700
C1288       C  0.57482689  0.83801784  0.32582620     0.35600
N1289       N  0.69786846  0.92845150  0.44346081    -0.44600
N1290       N  0.55341421  0.82284019  0.30653650    -0.44600
C1291       C  0.85799526  0.84978598  0.14402561    -0.01000
C1292       C  0.84206519  0.86066780  0.10724609    -0.12900
C1293       C  0.85956501  0.88558087  0.08713018     0.01200
C1294       C  0.89385895  0.90052289  0.10399404    -0.01100
C1295       C  0.90987677  0.88955161  0.14066271    -0.12900
C1296       C  0.89240979  0.86464860  0.16075448     0.01100
H1297       H  0.81583417  0.84954681  0.09380373     0.14100
H1298       H  0.93612936  0.90064362  0.15410840     0.14100
C1299       C  0.91056013  0.85543563  0.19866454     0.35700
C1300       C  0.84160496  0.89475762  0.04910266     0.35600
N1301       N  0.92540152  0.84833751  0.22904030    -0.44600
N1302       N  0.82696892  0.90184436  0.01861930    -0.44600
N1303       N  0.95324298  0.96491936  0.92441376    -0.07000
N1304       N  0.94739699  0.94199878  0.89893073    -0.59100
N1305       N  0.92344882  0.53521535  0.95165702    -0.06700
N1306       N  0.89723602  0.55773053  0.94560930    -0.61300
N1307       N  0.95176910  0.53532968  0.92360336    -0.06300
N1308       N  0.94556273  0.55809351  0.89800165    -0.59100
N1309       N  0.92474179  0.96522104  0.95227139    -0.06000
N1310       N  0.89886543  0.94262278  0.94631450    -0.61600
C1311       C  0.91323992  0.92835974  0.91288827     0.95200
C1312       C  0.91132370  0.57178364  0.91198986     0.94900
N1313       N  0.95233106  0.53576336  0.57504959    -0.07200
N1314       N  0.94688093  0.55902050  0.60005296    -0.59700
N1315       N  0.92444036  0.96531884  0.54681987    -0.05300
N1316       N  0.89903205  0.94230311  0.55179045    -0.61000
N1317       N  0.95255017  0.96507550  0.57516851    -0.07200
N1318       N  0.94673991  0.94184358  0.60005079    -0.60000
N1319       N  0.92423816  0.53586294  0.54665766    -0.05000
N1320       N  0.89914987  0.55923878  0.55168982    -0.61000
Mn1321     Mn  0.92303116  0.00054343  0.49952877     1.18400
C1322       C  0.91371991  0.57357933  0.58502538     0.97200
C1323       C  0.91322903  0.92772987  0.58506741     0.97900
N1324       N  0.54784808  0.53582528  0.92445492    -0.07200
N1325       N  0.55332290  0.55845983  0.89860015    -0.63600
N1326       N  0.57660432  0.96544249  0.95293796    -0.06000
N1327       N  0.60270979  0.94281893  0.94723718    -0.64200
N1328       N  0.54811667  0.96498973  0.92494678    -0.06800
N1329       N  0.55423588  0.94198181  0.89965721    -0.63800
N1330       N  0.57617954  0.53622451  0.95261521    -0.05600
N1331       N  0.60151739  0.55918453  0.94635543    -0.64500
Mn1332     Mn  0.50041869  0.50037341  0.92328855     1.10700
C1333       C  0.58690195  0.57296176  0.91250078     0.98500
C1334       C  0.58850219  0.92838054  0.91383719     0.98500
N1335       N  0.54841253  0.96553457  0.57620188    -0.06800
N1336       N  0.55420049  0.94246032  0.60144138    -0.62100
N1337       N  0.57599774  0.53624617  0.54819377    -0.06100
N1338       N  0.60122542  0.55931415  0.55410172    -0.58900
N1339       N  0.54760585  0.53612072  0.57617884    -0.07400
N1340       N  0.55283434  0.55914125  0.60157589    -0.61700
N1341       N  0.57644846  0.96542613  0.54782590    -0.06400
N1342       N  0.60165297  0.94210941  0.55295787    -0.58900
Mn1343     Mn  0.50018462  0.50075617  0.57746155     1.20200
Mn1344     Mn  0.57785156  0.50095390  0.50054344     1.10100
Cl1345     Cl  0.50038621  0.50071984  0.50031670    -0.86900
C1346       C  0.58734959  0.92791555  0.58641580     0.95500
C1347       C  0.58628973  0.57352937  0.58740545     0.95300
N1348       N  0.79874464  0.78580607  0.67402726    -0.07000
N1349       N  0.80467293  0.80878223  0.64874540    -0.59100
N1350       N  0.82700284  0.71502599  0.70280780    -0.06700
N1351       N  0.85220982  0.69173274  0.69773539    -0.61300
N1352       N  0.79893329  0.71511728  0.67438594    -0.06300
N1353       N  0.80453982  0.69191591  0.64931417    -0.59100
N1354       N  0.82698024  0.78563360  0.70225529    -0.06000
N1355       N  0.85258927  0.80845068  0.69679763    -0.61600
C1356       C  0.83840357  0.82281807  0.66335391     0.95200
C1357       C  0.83775554  0.67741093  0.66434938     0.94900
N1358       N  0.79939296  0.71580939  0.82582263    -0.07200
N1359       N  0.80551369  0.69308529  0.85151218    -0.59700
N1360       N  0.82722947  0.78607017  0.79692790    -0.05300
N1361       N  0.85326196  0.80861050  0.80262586    -0.61000
N1362       N  0.79889702  0.78650679  0.82496336    -0.08800
N1363       N  0.80501475  0.80947761  0.85029247    -0.60000
N1364       N  0.82772804  0.71580978  0.79778351    -0.05000
N1365       N  0.85386583  0.69326391  0.80392852    -0.61000
Mn1366     Mn  0.82853997  0.75060164  0.74987918     1.18400
C1367       C  0.83972006  0.67930678  0.83758989     0.97200
C1368       C  0.83914841  0.82299568  0.83606604     0.97900
N1369       N  0.70362876  0.71516970  0.67409385    -0.07200
N1370       N  0.69832978  0.69214341  0.64872934    -0.63600
N1371       N  0.67482913  0.78586165  0.70217649    -0.06000
N1372       N  0.64962447  0.80917818  0.69704397    -0.64200
N1373       N  0.70286517  0.78575304  0.67380058    -0.06800
N1374       N  0.69707711  0.80882700  0.64856062    -0.63800
N1375       N  0.67530111  0.71507869  0.70214079    -0.05600
N1376       N  0.65004126  0.69201552  0.69630893    -0.64500
Mn1377     Mn  0.75103576  0.75050173  0.67261684     1.10700
C1378       C  0.66490128  0.67777620  0.66298442     0.98500
C1379       C  0.66392784  0.82337174  0.66358584     0.98500
N1380       N  0.70315437  0.78630205  0.82505441    -0.06800
N1381       N  0.69703456  0.80931133  0.85034163    -0.62100
N1382       N  0.67543280  0.71524192  0.79771331    -0.06100
N1383       N  0.65014115  0.69226783  0.80403155    -0.58900
N1384       N  0.70381618  0.71567803  0.82581993    -0.07400
N1385       N  0.69842451  0.69304168  0.85169659    -0.61700
N1386       N  0.67466691  0.78584756  0.79706317    -0.06400
N1387       N  0.64856104  0.80847123  0.80276137    -0.58900
Mn1388     Mn  0.75128890  0.75111840  0.82678550     1.20200
Mn1389     Mn  0.67361737  0.75044001  0.74973498     1.10100
Cl1390     Cl  0.75109206  0.75065237  0.74976479    -0.86900
C1391       C  0.66276818  0.82291162  0.83615993     0.95500
C1392       C  0.66483497  0.67851259  0.83786348     0.95300
C1393       C  0.60556089  0.60050414  0.60685054    -0.01000
C1394       C  0.64666986  0.60651068  0.59861018    -0.12900
C1395       C  0.66683392  0.63120578  0.61671911     0.01200
C1396       C  0.64560831  0.65079660  0.64358028    -0.01100
C1397       C  0.60449889  0.64479555  0.65181904    -0.12900
C1398       C  0.58434760  0.62007336  0.63375033     0.01100
H1399       H  0.66346900  0.59152424  0.57838531     0.14100
H1400       H  0.58770793  0.65978224  0.67205013     0.14100
C1401       C  0.54166773  0.61611380  0.64262651     0.35700
C1402       C  0.70956798  0.63506747  0.60801168     0.35600
N1403       N  0.50746738  0.61313825  0.64987434    -0.44600
N1404       N  0.74382023  0.63795155  0.60093900    -0.44600
C1405       C  0.64566792  0.65141119  0.85753382    -0.01000
C1406       C  0.61085625  0.63860426  0.83954042    -0.12900
C1407       C  0.59107559  0.61333360  0.85662594     0.01200
C1408       C  0.60612640  0.60004564  0.89283752    -0.01100
C1409       C  0.64095301  0.61284283  0.91082499    -0.12900
C1410       C  0.66071377  0.63813600  0.89375351     0.01100
H1411       H  0.59880355  0.64837864  0.81180936     0.14100
H1412       H  0.65299840  0.60306744  0.93855815     0.14100
C1413       C  0.69617661  0.64974551  0.91454956     0.35700
C1414       C  0.55553229  0.60180727  0.83588386     0.35600
N1415       N  0.72452957  0.65887375  0.93149869    -0.44600
N1416       N  0.52710166  0.59276999  0.81897846    -0.44600
C1417       C  0.64461562  0.85050016  0.64451451    -0.01000
C1418       C  0.64518400  0.85304118  0.60215294    -0.12900
C1419       C  0.62623552  0.87773222  0.58252121     0.01200
C1420       C  0.60666180  0.90078702  0.60548693    -0.01100
C1421       C  0.60609341  0.89824596  0.64784850    -0.12900
C1422       C  0.62504143  0.87355473  0.66748017     0.01100
H1423       H  0.65967755  0.83527133  0.58420648     0.14100
H1424       H  0.59159975  0.91601574  0.66579499     0.14100
C1425       C  0.62573447  0.87338663  0.71120126     0.35700
C1426       C  0.62554066  0.87789947  0.53880014     0.35600
N1427       N  0.62649627  0.87352704  0.74623103    -0.44600
N1428       N  0.62477717  0.87775808  0.50377039    -0.44600
C1429       C  0.89449118  0.60059776  0.60442824    -0.01000
C1430       C  0.90079540  0.60528892  0.64603367    -0.12900
C1431       C  0.88234491  0.62978590  0.66641366     0.01200
C1432       C  0.85719485  0.65049273  0.64489854    -0.01100
C1433       C  0.85096617  0.64583660  0.60327343    -0.12900
C1434       C  0.86946788  0.62136290  0.58288749     0.01100
H1435       H  0.91959146  0.58934982  0.66301989     0.14100
H1436       H  0.83218073  0.66177920  0.58628246     0.14100
C1437       C  0.86354079  0.61910951  0.53964646     0.35700
C1438       C  0.88850563  0.63212146  0.70961848     0.35600
N1439       N  0.85880946  0.61764744  0.50496769    -0.44600
N1440       N  0.89348290  0.63363500  0.74426068    -0.44600
C1441       C  0.89368539  0.90159521  0.89338581    -0.01000
C1442       C  0.91777843  0.88161230  0.87020621    -0.12900
C1443       C  0.90086300  0.85586976  0.85133224     0.01200
C1444       C  0.85879091  0.84984023  0.85527561    -0.01100
C1445       C  0.83470401  0.86985963  0.87838563    -0.12900
C1446       C  0.85158604  0.89564364  0.89713435     0.01100
H1447       H  0.95016344  0.88581634  0.86734042     0.14100
H1448       H  0.80230962  0.86568330  0.88123403     0.14100
C1449       C  0.82447349  0.91628075  0.91822562     0.35700
C1450       C  0.92787722  0.83544296  0.82975632     0.35600
N1451       N  0.80264798  0.93289934  0.93487032    -0.44600
N1452       N  0.94965053  0.81904230  0.81266929    -0.44600
C1453       C  0.89227734  0.59905649  0.89309766    -0.01000
C1454       C  0.91720667  0.61968678  0.87213780    -0.12900
C1455       C  0.90097791  0.64608932  0.85417719     0.01200
C1456       C  0.85874662  0.65207834  0.85661158    -0.01100
C1457       C  0.83381738  0.63146228  0.87759943    -0.12900
C1458       C  0.85005254  0.60506368  0.89558053     0.01100
H1459       H  0.94971917  0.61549454  0.87042408     0.14100
H1460       H  0.80130604  0.63565627  0.87930388     0.14100
C1461       C  0.82227852  0.58397956  0.91465616     0.35700
C1462       C  0.92877241  0.66719950  0.83517937     0.35600
N1463       N  0.79980116  0.56712266  0.92970592    -0.44600
N1464       N  0.95127369  0.68407753  0.82020650    -0.44600
C1465       C  0.60815515  0.90144791  0.89448504    -0.01000
C1466       C  0.58453644  0.88258999  0.86928855    -0.12900
C1467       C  0.60145251  0.85698030  0.84996270     0.01200
C1468       C  0.64311513  0.84984540  0.85550910    -0.01100
C1469       C  0.66673392  0.86870379  0.88070472    -0.12900
C1470       C  0.64981802  0.89431361  0.90003007     0.01100
H1471       H  0.55246898  0.88762585  0.86501280     0.14100
H1472       H  0.69880145  0.86366813  0.88498032     0.14100
C1473       C  0.67645008  0.91327473  0.92416872     0.35700
C1474       C  0.57482125  0.83802037  0.82582145     0.35600
N1475       N  0.69786309  0.92845405  0.94345572    -0.44600
N1476       N  0.55340910  0.82284223  0.80653184    -0.44600
C1477       C  0.85799305  0.84978282  0.64402123    -0.01000
C1478       C  0.84203887  0.86068164  0.60726061    -0.12900
C1479       C  0.85953386  0.88559738  0.58714597     0.01200
C1480       C  0.89384856  0.90052436  0.60399135    -0.01100
C1481       C  0.90989032  0.88953599  0.64064097    -0.12900
C1482       C  0.89242810  0.86463045  0.66073152     0.01100
H1483       H  0.81579096  0.84957307  0.59383303     0.14100
H1484       H  0.93615983  0.90061549  0.65407194     0.14100
C1485       C  0.91060767  0.85539730  0.69861929     0.35700
C1486       C  0.84154423  0.89479444  0.54914081     0.35600
N1487       N  0.92547261  0.84828247  0.72897693    -0.44600
N1488       N  0.82688397  0.90189773  0.51867562    -0.44600
loop_ 
_geom_bond_atom_site_label_1 
_geom_bond_atom_site_label_2 
_geom_bond_distance 
_geom_bond_site_symmetry_2 
_ccdc_geom_bond_type 
N1            N2   1.320       .  A
N1            N7   1.315       .  A
N1        Mn1146   2.201       .  S
N2            C9   1.354       .  A
N3            N5   1.315       .  A
N3            N4   1.319       .  A
N3         Mn577   2.194       .  S
N4           C10   1.352       .  A
N5            N6   1.320       .  A
N5         Mn774   2.204       .  S
N6           C10   1.354       .  A
N7            N8   1.318       .  A
N7         Mn205   2.190       .  S
N8            C9   1.351       .  A
C9          C139   1.479       .  S
C10         C151   1.481       .  S
N11          N17   1.315       .  A
N11          N12   1.320       .  A
N11        Mn785   2.202       .  S
N12          C20   1.354       .  A
N13          N14   1.319       .  A
N13          N15   1.314       .  A
N13         Mn19   2.194   1_554  S
N14          C21   1.352       .  A
N15          N16   1.321       .  A
N15       Mn1157   2.204       .  S
N16          C21   1.356       .  A
N17          N18   1.320       .  A
N17        Mn391   2.196       .  S
N18          C20   1.353       .  A
Mn19        N561   2.193       .  S
Mn19        N193   2.190       .  S
Mn19        N389   2.195   1_556  S
Mn19      Cl1159   2.545   1_556  S
C20         C127   1.481       .  S
C21         C178   1.488       .  S
N22          N23   1.319       .  A
N22          N28   1.315       .  A
N22         Mn30   2.195       .  S
N23          C31   1.352       .  A
N24          N26   1.315       .  A
N24          N25   1.319       .  A
N24        Mn600   2.198       .  S
N25          C32   1.353       .  A
N26          N27   1.320       .  A
N26        Mn402   2.199       .  S
N27          C32   1.353       .  A
N28          N29   1.321       .  A
N28        Mn228   2.207       .  S
N29          C31   1.356       .  A
Mn30       N1117   2.201   1_445  S
Mn30        N749   2.204   1_455  S
Mn30        N398   2.199   1_545  S
Mn30       Cl229   2.544       .  S
C31         C106   1.489       .  S
C32         C163   1.481       .  S
N33          N34   1.320       .  A
N33          N39   1.315       .  A
N33        Mn413   2.201       .  S
N34          C44   1.354       .  A
N35          N36   1.320       .  A
N35          N37   1.315       .  A
N35         Mn42   2.198       .  S
N36          C45   1.354       .  A
N37          N38   1.320       .  A
N37         Mn41   2.203       .  S
N38          C45   1.353       .  A
N39          N40   1.320       .  A
N39        Mn414   2.202   1_554  S
N40          C44   1.353       .  A
Mn41        N755   2.198   1_455  S
Mn41       N1131   2.203   1_445  S
Mn41        N405   2.202   1_545  S
Mn41        Cl43   2.545       .  S
Mn42        N582   2.198   1_544  S
Mn42        N214   2.207   1_554  S
Mn42        N411   2.203   1_545  S
Mn42        Cl43   2.548       .  S
Cl43      Mn1135   2.545   1_454  S
Cl43       Mn216   2.544   1_554  S
C44         C118   1.487       .  S
C45          C91   1.484       .  S
N46          N47   1.321       .  A
N46          N52   1.314       .  A
N46         Mn75   2.204       .  S
N47          C54   1.356       .  A
N48          N50   1.315       .  A
N48          N49   1.320       .  A
N48         Mn64   2.197       .  S
N49          C55   1.353       .  A
N50          N51   1.319       .  A
N50         Mn75   2.199       .  S
N51          C55   1.353       .  A
N52          N53   1.319       .  A
N52         Mn64   2.195       .  S
N53          C54   1.352       .  A
C54         C175   1.488       .  S
C55         C130   1.481       .  S
N56          N62   1.315       .  A
N56          N57   1.320       .  A
N56         Mn86   2.203       .  S
N57          C65   1.354       .  A
N58          N59   1.318       .  A
N58          N60   1.314       .  A
N58         Mn64   2.192       .  S
N59          C66   1.352       .  A
N60          N61   1.320       .  A
N60         Mn86   2.200       .  S
N61          C66   1.354       .  A
N62          N63   1.319       .  A
N62         Mn64   2.195       .  S
N63          C65   1.352       .  A
Mn64        Cl88   2.545       .  S
C65         C154   1.481       .  S
C66         C142   1.480       .  S
N67          N68   1.319       .  A
N67          N73   1.315       .  A
N67         Mn75   2.200       .  S
N68          C76   1.353       .  A
N69          N71   1.315       .  A
N69          N70   1.320       .  A
N69         Mn87   2.202       .  S
N70          C77   1.353       .  A
N71          N72   1.320       .  A
N71         Mn75   2.201       .  S
N72          C77   1.354       .  A
N73          N74   1.320       .  A
N73         Mn87   2.200       .  S
N74          C76   1.354       .  A
Mn75        Cl88   2.546       .  S
C76          C94   1.483       .  S
C77         C115   1.487       .  S
N78          N79   1.320       .  A
N78          N84   1.315       .  A
N78         Mn86   2.199       .  S
N79          C89   1.353       .  A
N80          N81   1.320       .  A
N80          N82   1.315       .  A
N80         Mn87   2.204       .  S
N81          C90   1.355       .  A
N82          N83   1.319       .  A
N82         Mn86   2.198       .  S
N83          C90   1.353       .  A
N84          N85   1.319       .  A
N84         Mn87   2.198       .  S
N85          C89   1.353       .  A
Mn86        Cl88   2.544       .  S
Mn87        Cl88   2.547       .  S
C89         C166   1.481       .  S
C90         C103   1.489       .  S
C91          C92   1.405       .  A
C91          C96   1.414       .  A
C92          C93   1.400       .  A
C92          H97   1.085       .  S
C93          C94   1.414       .  A
C93         C100   1.445       .  S
C94          C95   1.405       .  A
C95          C96   1.400       .  A
C95          H98   1.085       .  S
C96          C99   1.444       .  S
C99         N101   1.157       .  T
C100        N102   1.157       .  T
C103        C104   1.405       .  A
C103        C108   1.417       .  A
C104        C105   1.401       .  A
C104        H109   1.085       .  S
C105        C106   1.417       .  A
C105        C112   1.445       .  S
C106        C107   1.405       .  A
C107        C108   1.401       .  A
C107        H110   1.085       .  S
C108        C111   1.444       .  S
C111        N113   1.158       .  T
C112        N114   1.158       .  T
C115        C116   1.405       .  A
C115        C120   1.415       .  A
C116        C117   1.401       .  A
C116        H121   1.085       .  S
C117        C118   1.415       .  A
C117        C124   1.444       .  S
C118        C119   1.405       .  A
C119        C120   1.401       .  A
C119        H122   1.085       .  S
C120        C123   1.444       .  S
C123        N125   1.157       .  T
C124        N126   1.157       .  T
C127        C128   1.404       .  A
C127        C132   1.414       .  A
C128        C129   1.399       .  A
C128        H133   1.085       .  S
C129        C130   1.413       .  A
C129        C136   1.444       .  S
C130        C131   1.404       .  A
C131        C132   1.399       .  A
C131        H134   1.085       .  S
C132        C135   1.445       .  S
C135        N137   1.157       .  T
C136        N138   1.157       .  T
C139        C140   1.403       .  A
C139        C144   1.414       .  A
C140        C141   1.399       .  A
C140        H145   1.085       .  S
C141        C142   1.414       .  A
C141        C148   1.444       .  S
C142        C143   1.403       .  A
C143        C144   1.399       .  A
C143        H146   1.085       .  S
C144        C147   1.444       .  S
C147        N149   1.157       .  T
C148        N150   1.157       .  T
C151        C152   1.403       .  A
C151        C156   1.414       .  A
C152        C153   1.400       .  A
C152        H157   1.085       .  S
C153        C154   1.414       .  A
C153        C160   1.444       .  S
C154        C155   1.403       .  A
C155        C156   1.400       .  A
C155        H158   1.085       .  S
C156        C159   1.444       .  S
C159        N161   1.157       .  T
C160        N162   1.157       .  T
C163        C164   1.404       .  A
C163        C168   1.414       .  A
C164        C165   1.400       .  A
C164        H169   1.085       .  S
C165        C166   1.414       .  A
C165        C172   1.444       .  S
C166        C167   1.404       .  A
C167        C168   1.400       .  A
C167        H170   1.085       .  S
C168        C171   1.444       .  S
C171        N173   1.157       .  T
C172        N174   1.157       .  T
C175        C176   1.404       .  A
C175        C180   1.416       .  A
C176        C177   1.400       .  A
C176        H181   1.085       .  S
C177        C178   1.416       .  A
C177        C184   1.443       .  S
C178        C179   1.404       .  A
C179        C180   1.400       .  A
C179        H182   1.085       .  S
C180        C183   1.443       .  S
C183        N185   1.157       .  T
C184        N186   1.157       .  T
N187        N188   1.320       .  A
N187        N193   1.315       .  A
N187      Mn1332   2.201       .  S
N188        C195   1.354       .  A
N189        N191   1.315       .  A
N189        N190   1.319       .  A
N189       Mn391   2.194   1_556  S
N190        C196   1.352       .  A
N191        N192   1.320       .  A
N191       Mn960   2.204       .  S
N192        C196   1.354       .  A
N193        N194   1.318       .  A
N194        C195   1.351       .  A
C195        C325   1.479       .  S
C196        C337   1.481       .  S
N197        N203   1.315       .  A
N197        N198   1.320       .  A
N197       Mn971   2.202       .  S
N198        C206   1.354       .  A
N199        N200   1.319       .  A
N199        N201   1.314       .  A
N199       Mn205   2.194       .  S
N200        C207   1.352       .  A
N201        N202   1.321       .  A
N201      Mn1343   2.204       .  S
N202        C207   1.356       .  A
N203        N204   1.320       .  A
N203       Mn577   2.196       .  S
N204        C206   1.353       .  A
Mn205       N375   2.193       .  S
Mn205       N575   2.195       .  S
Mn205     Cl1345   2.545       .  S
C206        C313   1.481       .  S
C207        C364   1.488       .  S
N208        N209   1.319       .  A
N208        N214   1.315       .  A
N208       Mn216   2.195       .  S
N209        C217   1.352       .  A
N210        N212   1.315       .  A
N210        N211   1.319       .  A
N210       Mn414   2.198       .  S
N211        C218   1.353       .  A
N212        N213   1.320       .  A
N212       Mn588   2.199       .  S
N213        C218   1.353       .  A
N214        N215   1.321       .  A
N215        C217   1.356       .  A
Mn216      N1303   2.201   1_445  S
Mn216       N935   2.204   1_455  S
Mn216       N584   2.199   1_545  S
C217        C292   1.489       .  S
C218        C349   1.481       .  S
N219        N220   1.320       .  A
N219        N225   1.315       .  A
N219       Mn599   2.201       .  S
N220        C230   1.354       .  A
N221        N222   1.320       .  A
N221        N223   1.315       .  A
N221       Mn228   2.198       .  S
N222        C231   1.354       .  A
N223        N224   1.320       .  A
N223       Mn227   2.203       .  S
N224        C231   1.353       .  A
N225        N226   1.320       .  A
N225       Mn600   2.202       .  S
N226        C230   1.353       .  A
Mn227       N941   2.198   1_455  S
Mn227      N1317   2.203   1_445  S
Mn227       N591   2.202   1_545  S
Mn227      Cl229   2.545       .  S
Mn228       N396   2.198   1_545  S
Mn228       N597   2.203   1_545  S
Mn228      Cl229   2.548       .  S
Cl229     Mn1321   2.545   1_455  S
C230        C304   1.486       .  S
C231        C277   1.484       .  S
N232        N233   1.321       .  A
N232        N238   1.314       .  A
N232       Mn261   2.204       .  S
N233        C240   1.356       .  A
N234        N236   1.315       .  A
N234        N235   1.320       .  A
N234       Mn250   2.197       .  S
N235        C241   1.353       .  A
N236        N237   1.319       .  A
N236       Mn261   2.199       .  S
N237        C241   1.353       .  A
N238        N239   1.319       .  A
N238       Mn250   2.195       .  S
N239        C240   1.352       .  A
C240        C361   1.488       .  S
C241        C316   1.481       .  S
N242        N248   1.315       .  A
N242        N243   1.320       .  A
N242       Mn272   2.203       .  S
N243        C251   1.354       .  A
N244        N245   1.318       .  A
N244        N246   1.314       .  A
N244       Mn250   2.192       .  S
N245        C252   1.352       .  A
N246        N247   1.320       .  A
N246       Mn272   2.200       .  S
N247        C252   1.354       .  A
N248        N249   1.319       .  A
N248       Mn250   2.195       .  S
N249        C251   1.352       .  A
Mn250      Cl274   2.545       .  S
C251        C340   1.481       .  S
C252        C328   1.480       .  S
N253        N254   1.319       .  A
N253        N259   1.315       .  A
N253       Mn261   2.200       .  S
N254        C262   1.353       .  A
N255        N257   1.315       .  A
N255        N256   1.320       .  A
N255       Mn273   2.202       .  S
N256        C263   1.353       .  A
N257        N258   1.320       .  A
N257       Mn261   2.201       .  S
N258        C263   1.354       .  A
N259        N260   1.320       .  A
N259       Mn273   2.200       .  S
N260        C262   1.354       .  A
Mn261      Cl274   2.546       .  S
C262        C280   1.483       .  S
C263        C301   1.486       .  S
N264        N265   1.320       .  A
N264        N270   1.315       .  A
N264       Mn272   2.199       .  S
N265        C275   1.353       .  A
N266        N267   1.320       .  A
N266        N268   1.315       .  A
N266       Mn273   2.204       .  S
N267        C276   1.355       .  A
N268        N269   1.319       .  A
N268       Mn272   2.198       .  S
N269        C276   1.353       .  A
N270        N271   1.319       .  A
N270       Mn273   2.198       .  S
N271        C275   1.353       .  A
Mn272      Cl274   2.544       .  S
Mn273      Cl274   2.547       .  S
C275        C352   1.481       .  S
C276        C289   1.489       .  S
C277        C278   1.405       .  A
C277        C282   1.414       .  A
C278        C279   1.400       .  A
C278        H283   1.085       .  S
C279        C280   1.414       .  A
C279        C286   1.445       .  S
C280        C281   1.405       .  A
C281        C282   1.400       .  A
C281        H284   1.085       .  S
C282        C285   1.444       .  S
C285        N287   1.157       .  T
C286        N288   1.157       .  T
C289        C290   1.405       .  A
C289        C294   1.417       .  A
C290        C291   1.401       .  A
C290        H295   1.085       .  S
C291        C292   1.417       .  A
C291        C298   1.445       .  S
C292        C293   1.405       .  A
C293        C294   1.401       .  A
C293        H296   1.085       .  S
C294        C297   1.444       .  S
C297        N299   1.158       .  T
C298        N300   1.158       .  T
C301        C302   1.405       .  A
C301        C306   1.415       .  A
C302        C303   1.401       .  A
C302        H307   1.085       .  S
C303        C304   1.415       .  A
C303        C310   1.444       .  S
C304        C305   1.405       .  A
C305        C306   1.401       .  A
C305        H308   1.085       .  S
C306        C309   1.444       .  S
C309        N311   1.157       .  T
C310        N312   1.157       .  T
C313        C314   1.404       .  A
C313        C318   1.414       .  A
C314        C315   1.399       .  A
C314        H319   1.085       .  S
C315        C316   1.413       .  A
C315        C322   1.444       .  S
C316        C317   1.404       .  A
C317        C318   1.399       .  A
C317        H320   1.085       .  S
C318        C321   1.445       .  S
C321        N323   1.157       .  T
C322        N324   1.157       .  T
C325        C326   1.403       .  A
C325        C330   1.414       .  A
C326        C327   1.399       .  A
C326        H331   1.085       .  S
C327        C328   1.414       .  A
C327        C334   1.444       .  S
C328        C329   1.403       .  A
C329        C330   1.399       .  A
C329        H332   1.085       .  S
C330        C333   1.444       .  S
C333        N335   1.157       .  T
C334        N336   1.157       .  T
C337        C338   1.403       .  A
C337        C342   1.414       .  A
C338        C339   1.400       .  A
C338        H343   1.085       .  S
C339        C340   1.414       .  A
C339        C346   1.444       .  S
C340        C341   1.403       .  A
C341        C342   1.400       .  A
C341        H344   1.085       .  S
C342        C345   1.444       .  S
C345        N347   1.157       .  T
C346        N348   1.157       .  T
C349        C350   1.404       .  A
C349        C354   1.414       .  A
C350        C351   1.400       .  A
C350        H355   1.085       .  S
C351        C352   1.414       .  A
C351        C358   1.444       .  S
C352        C353   1.404       .  A
C353        C354   1.400       .  A
C353        H356   1.085       .  S
C354        C357   1.444       .  S
C357        N359   1.157       .  T
C358        N360   1.157       .  T
C361        C362   1.404       .  A
C361        C366   1.416       .  A
C362        C363   1.400       .  A
C362        H367   1.085       .  S
C363        C364   1.416       .  A
C363        C370   1.443       .  S
C364        C365   1.404       .  A
C365        C366   1.400       .  A
C365        H368   1.085       .  S
C366        C369   1.443       .  S
C369        N371   1.157       .  T
C370        N372   1.157       .  T
N373        N374   1.320       .  A
N373        N379   1.315       .  A
N373       Mn774   2.202   1_565  S
N374        C381   1.354       .  A
N375        N377   1.315       .  A
N375        N376   1.319       .  A
N376        C382   1.352       .  A
N377        N378   1.321       .  A
N377      Mn1146   2.205       .  S
N378        C382   1.354       .  A
N379        N380   1.318       .  A
N379       Mn577   2.192   1_565  S
N380        C381   1.352       .  A
C381        C511   1.480       .  S
C382        C523   1.481       .  S
N383        N389   1.315       .  A
N383        N384   1.319       .  A
N383      Mn1157   2.200       .  S
N384        C392   1.353       .  A
N385        N386   1.318       .  A
N385        N387   1.314       .  A
N385       Mn391   2.195   1_565  S
N386        C393   1.352       .  A
N387        N388   1.321       .  A
N387       Mn785   2.202   1_565  S
N388        C393   1.356       .  A
N389        N390   1.320       .  A
N390        C392   1.353       .  A
Mn391       N565   2.192   1_544  S
Mn391      Cl787   2.545       .  S
C392        C499   1.480       .  S
C393        C550   1.488       .  S
N394        N395   1.319       .  A
N394        N400   1.315       .  A
N394       Mn402   2.198       .  S
N395        C403   1.353       .  A
N396        N398   1.315       .  A
N396        N397   1.319       .  A
N397        C404   1.353       .  A
N398        N399   1.319       .  A
N399        C404   1.354       .  A
N400        N401   1.320       .  A
N400       Mn600   2.204       .  S
N401        C403   1.355       .  A
Mn402       N745   2.200   1_455  S
Mn402      N1121   2.203   1_455  S
Mn402      Cl601   2.544       .  S
C403        C478   1.489       .  S
C404        C535   1.487       .  S
N405        N406   1.321       .  A
N405        N411   1.315       .  A
N406        C416   1.353       .  A
N407        N408   1.320       .  A
N407        N409   1.315       .  A
N407       Mn414   2.200   1_554  S
N408        C417   1.354       .  A
N409        N410   1.319       .  A
N409       Mn413   2.200       .  S
N410        C417   1.353       .  A
N411        N412   1.320       .  A
N412        C416   1.353       .  A
Mn413      N1127   2.199   1_455  S
Mn413       N759   2.204   1_455  S
Mn413      Cl415   2.546   1_554  S
Mn414       N586   2.204       .  S
Mn414      Cl415   2.547       .  S
Cl415      Mn763   2.545   1_455  S
Cl415      Mn588   2.544       .  S
C416        C490   1.480       .  S
C417        C463   1.483       .  S
N418        N419   1.320       .  A
N418        N424   1.314       .  A
N418       Mn447   2.203       .  S
N419        C426   1.356       .  A
N420        N422   1.315       .  A
N420        N421   1.319       .  A
N420       Mn436   2.197       .  S
N421        C427   1.353       .  A
N422        N423   1.319       .  A
N422       Mn447   2.198       .  S
N423        C427   1.353       .  A
N424        N425   1.319       .  A
N424       Mn436   2.193       .  S
N425        C426   1.352       .  A
C426        C547   1.488       .  S
C427        C502   1.480       .  S
N428        N434   1.315       .  A
N428        N429   1.321       .  A
N428       Mn458   2.204       .  S
N429        C437   1.354       .  A
N430        N431   1.318       .  A
N430        N432   1.314       .  A
N430       Mn436   2.193       .  S
N431        C438   1.352       .  A
N432        N433   1.320       .  A
N432       Mn458   2.201       .  S
N433        C438   1.354       .  A
N434        N435   1.319       .  A
N434       Mn436   2.194       .  S
N435        C437   1.352       .  A
Mn436      Cl460   2.545       .  S
C437        C526   1.481       .  S
C438        C514   1.481       .  S
N439        N440   1.320       .  A
N439        N445   1.315       .  A
N439       Mn447   2.203       .  S
N440        C448   1.353       .  A
N441        N443   1.315       .  A
N441        N442   1.320       .  A
N441       Mn459   2.203       .  S
N442        C449   1.353       .  A
N443        N444   1.321       .  A
N443       Mn447   2.202       .  S
N444        C449   1.353       .  A
N445        N446   1.320       .  A
N445       Mn459   2.198       .  S
N446        C448   1.354       .  A
Mn447      Cl460   2.545       .  S
C448        C466   1.484       .  S
C449        C487   1.480       .  S
N450        N451   1.319       .  A
N450        N456   1.315       .  A
N450       Mn458   2.199       .  S
N451        C461   1.354       .  A
N452        N453   1.321       .  A
N452        N454   1.315       .  A
N452       Mn459   2.207       .  S
N453        C462   1.356       .  A
N454        N455   1.319       .  A
N454       Mn458   2.195       .  S
N455        C462   1.352       .  A
N456        N457   1.319       .  A
N456       Mn459   2.198       .  S
N457        C461   1.353       .  A
Mn458      Cl460   2.544       .  S
Mn459      Cl460   2.548       .  S
C461        C538   1.487       .  S
C462        C475   1.489       .  S
C463        C464   1.405       .  A
C463        C468   1.414       .  A
C464        C465   1.400       .  A
C464        H469   1.085       .  S
C465        C466   1.414       .  A
C465        C472   1.444       .  S
C466        C467   1.405       .  A
C467        C468   1.400       .  A
C467        H470   1.085       .  S
C468        C471   1.445       .  S
C471        N473   1.157       .  T
C472        N474   1.157       .  T
C475        C476   1.405       .  A
C475        C480   1.417       .  A
C476        C477   1.401       .  A
C476        H481   1.085       .  S
C477        C478   1.417       .  A
C477        C484   1.444       .  S
C478        C479   1.405       .  A
C479        C480   1.401       .  A
C479        H482   1.085       .  S
C480        C483   1.445       .  S
C483        N485   1.158       .  T
C484        N486   1.158       .  T
C487        C488   1.403       .  A
C487        C492   1.413       .  A
C488        C489   1.401       .  A
C488        H493   1.085       .  S
C489        C490   1.413       .  A
C489        C496   1.444       .  S
C490        C491   1.403       .  A
C491        C492   1.401       .  A
C491        H494   1.085       .  S
C492        C495   1.444       .  S
C495        N497   1.157       .  T
C496        N498   1.157       .  T
C499        C500   1.404       .  A
C499        C504   1.413       .  A
C500        C501   1.399       .  A
C500        H505   1.085       .  S
C501        C502   1.413       .  A
C501        C508   1.444       .  S
C502        C503   1.404       .  A
C503        C504   1.399       .  A
C503        H506   1.085       .  S
C504        C507   1.445       .  S
C507        N509   1.157       .  T
C508        N510   1.157       .  T
C511        C512   1.403       .  A
C511        C516   1.415       .  A
C512        C513   1.399       .  A
C512        H517   1.085       .  S
C513        C514   1.414       .  A
C513        C520   1.444       .  S
C514        C515   1.403       .  A
C515        C516   1.400       .  A
C515        H518   1.085       .  S
C516        C519   1.444       .  S
C519        N521   1.157       .  T
C520        N522   1.157       .  T
C523        C524   1.403       .  A
C523        C528   1.414       .  A
C524        C525   1.400       .  A
C524        H529   1.085       .  S
C525        C526   1.414       .  A
C525        C532   1.444       .  S
C526        C527   1.403       .  A
C527        C528   1.400       .  A
C527        H530   1.085       .  S
C528        C531   1.444       .  S
C531        N533   1.157       .  T
C532        N534   1.157       .  T
C535        C536   1.405       .  A
C535        C540   1.416       .  A
C536        C537   1.400       .  A
C536        H541   1.085       .  S
C537        C538   1.416       .  A
C537        C544   1.445       .  S
C538        C539   1.405       .  A
C539        C540   1.400       .  A
C539        H542   1.085       .  S
C540        C543   1.445       .  S
C543        N545   1.158       .  T
C544        N546   1.158       .  T
C547        C548   1.404       .  A
C547        C552   1.417       .  A
C548        C549   1.399       .  A
C548        H553   1.085       .  S
C549        C550   1.416       .  A
C549        C556   1.443       .  S
C550        C551   1.404       .  A
C551        C552   1.400       .  A
C551        H554   1.085       .  S
C552        C555   1.443       .  S
C555        N557   1.157       .  T
C556        N558   1.157       .  T
N559        N560   1.320       .  A
N559        N565   1.315       .  A
N559       Mn960   2.202   1_565  S
N560        C567   1.354       .  A
N561        N563   1.315       .  A
N561        N562   1.319       .  A
N562        C568   1.352       .  A
N563        N564   1.321       .  A
N563      Mn1332   2.205       .  S
N564        C568   1.354       .  A
N565        N566   1.318       .  A
N566        C567   1.352       .  A
C567        C697   1.480       .  S
C568        C709   1.481       .  S
N569        N575   1.315       .  A
N569        N570   1.319       .  A
N569      Mn1343   2.200       .  S
N570        C578   1.353       .  A
N571        N572   1.318       .  A
N571        N573   1.314       .  A
N571       Mn577   2.195   1_565  S
N572        C579   1.352       .  A
N573        N574   1.321       .  A
N573       Mn971   2.202   1_565  S
N574        C579   1.356       .  A
N575        N576   1.319       .  A
N576        C578   1.353       .  A
Mn577      Cl973   2.545       .  S
C578        C685   1.480       .  S
C579        C736   1.488       .  S
N580        N581   1.319       .  A
N580        N586   1.315       .  A
N580       Mn588   2.198       .  S
N581        C589   1.353       .  A
N582        N584   1.315       .  A
N582        N583   1.319       .  A
N583        C590   1.353       .  A
N584        N585   1.319       .  A
N585        C590   1.354       .  A
N586        N587   1.320       .  A
N587        C589   1.355       .  A
Mn588       N931   2.200   1_455  S
Mn588      N1307   2.203   1_455  S
C589        C664   1.489       .  S
C590        C721   1.487       .  S
N591        N592   1.321       .  A
N591        N597   1.315       .  A
N592        C602   1.353       .  A
N593        N594   1.320       .  A
N593        N595   1.315       .  A
N593       Mn600   2.200       .  S
N594        C603   1.354       .  A
N595        N596   1.319       .  A
N595       Mn599   2.200       .  S
N596        C603   1.353       .  A
N597        N598   1.320       .  A
N598        C602   1.353       .  A
Mn599      N1313   2.199   1_455  S
Mn599       N945   2.204   1_455  S
Mn599      Cl601   2.546       .  S
Mn600      Cl601   2.547       .  S
Cl601      Mn949   2.545   1_455  S
C602        C676   1.480       .  S
C603        C649   1.483       .  S
N604        N605   1.320       .  A
N604        N610   1.314       .  A
N604       Mn633   2.203       .  S
N605        C612   1.356       .  A
N606        N608   1.315       .  A
N606        N607   1.319       .  A
N606       Mn622   2.197       .  S
N607        C613   1.353       .  A
N608        N609   1.319       .  A
N608       Mn633   2.198       .  S
N609        C613   1.353       .  A
N610        N611   1.319       .  A
N610       Mn622   2.193       .  S
N611        C612   1.352       .  A
C612        C733   1.488       .  S
C613        C688   1.480       .  S
N614        N620   1.315       .  A
N614        N615   1.321       .  A
N614       Mn644   2.204       .  S
N615        C623   1.354       .  A
N616        N617   1.318       .  A
N616        N618   1.314       .  A
N616       Mn622   2.193       .  S
N617        C624   1.352       .  A
N618        N619   1.320       .  A
N618       Mn644   2.201       .  S
N619        C624   1.354       .  A
N620        N621   1.319       .  A
N620       Mn622   2.194       .  S
N621        C623   1.352       .  A
Mn622      Cl646   2.545       .  S
C623        C712   1.481       .  S
C624        C700   1.481       .  S
N625        N626   1.320       .  A
N625        N631   1.315       .  A
N625       Mn633   2.203       .  S
N626        C634   1.353       .  A
N627        N629   1.315       .  A
N627        N628   1.320       .  A
N627       Mn645   2.203       .  S
N628        C635   1.353       .  A
N629        N630   1.321       .  A
N629       Mn633   2.202       .  S
N630        C635   1.353       .  A
N631        N632   1.320       .  A
N631       Mn645   2.198       .  S
N632        C634   1.354       .  A
Mn633      Cl646   2.545       .  S
C634        C652   1.484       .  S
C635        C673   1.480       .  S
N636        N637   1.319       .  A
N636        N642   1.315       .  A
N636       Mn644   2.199       .  S
N637        C647   1.354       .  A
N638        N639   1.321       .  A
N638        N640   1.315       .  A
N638       Mn645   2.207       .  S
N639        C648   1.356       .  A
N640        N641   1.319       .  A
N640       Mn644   2.195       .  S
N641        C648   1.352       .  A
N642        N643   1.319       .  A
N642       Mn645   2.198       .  S
N643        C647   1.353       .  A
Mn644      Cl646   2.544       .  S
Mn645      Cl646   2.548       .  S
C647        C724   1.487       .  S
C648        C661   1.489       .  S
C649        C650   1.405       .  A
C649        C654   1.414       .  A
C650        C651   1.400       .  A
C650        H655   1.085       .  S
C651        C652   1.414       .  A
C651        C658   1.444       .  S
C652        C653   1.405       .  A
C653        C654   1.400       .  A
C653        H656   1.085       .  S
C654        C657   1.445       .  S
C657        N659   1.157       .  T
C658        N660   1.157       .  T
C661        C662   1.405       .  A
C661        C666   1.417       .  A
C662        C663   1.401       .  A
C662        H667   1.085       .  S
C663        C664   1.417       .  A
C663        C670   1.444       .  S
C664        C665   1.405       .  A
C665        C666   1.401       .  A
C665        H668   1.085       .  S
C666        C669   1.445       .  S
C669        N671   1.158       .  T
C670        N672   1.158       .  T
C673        C674   1.403       .  A
C673        C678   1.413       .  A
C674        C675   1.401       .  A
C674        H679   1.085       .  S
C675        C676   1.413       .  A
C675        C682   1.444       .  S
C676        C677   1.403       .  A
C677        C678   1.401       .  A
C677        H680   1.085       .  S
C678        C681   1.444       .  S
C681        N683   1.157       .  T
C682        N684   1.157       .  T
C685        C686   1.404       .  A
C685        C690   1.413       .  A
C686        C687   1.399       .  A
C686        H691   1.085       .  S
C687        C688   1.413       .  A
C687        C694   1.444       .  S
C688        C689   1.404       .  A
C689        C690   1.399       .  A
C689        H692   1.085       .  S
C690        C693   1.445       .  S
C693        N695   1.157       .  T
C694        N696   1.157       .  T
C697        C698   1.403       .  A
C697        C702   1.415       .  A
C698        C699   1.399       .  A
C698        H703   1.085       .  S
C699        C700   1.414       .  A
C699        C706   1.444       .  S
C700        C701   1.403       .  A
C701        C702   1.400       .  A
C701        H704   1.085       .  S
C702        C705   1.444       .  S
C705        N707   1.157       .  T
C706        N708   1.157       .  T
C709        C710   1.403       .  A
C709        C714   1.414       .  A
C710        C711   1.400       .  A
C710        H715   1.085       .  S
C711        C712   1.414       .  A
C711        C718   1.444       .  S
C712        C713   1.403       .  A
C713        C714   1.400       .  A
C713        H716   1.085       .  S
C714        C717   1.444       .  S
C717        N719   1.157       .  T
C718        N720   1.157       .  T
C721        C722   1.405       .  A
C721        C726   1.416       .  A
C722        C723   1.400       .  A
C722        H727   1.085       .  S
C723        C724   1.416       .  A
C723        C730   1.445       .  S
C724        C725   1.405       .  A
C725        C726   1.400       .  A
C725        H728   1.085       .  S
C726        C729   1.445       .  S
C729        N731   1.158       .  T
C730        N732   1.158       .  T
C733        C734   1.404       .  A
C733        C738   1.417       .  A
C734        C735   1.399       .  A
C734        H739   1.085       .  S
C735        C736   1.416       .  A
C735        C742   1.443       .  S
C736        C737   1.404       .  A
C737        C738   1.400       .  A
C737        H740   1.085       .  S
C738        C741   1.443       .  S
C741        N743   1.157       .  T
C742        N744   1.157       .  T
N745        N746   1.320       .  A
N745        N751   1.314       .  A
N746        C753   1.354       .  A
N747        N749   1.315       .  A
N747        N748   1.319       .  A
N747      Mn1321   2.194       .  S
N748        C754   1.352       .  A
N749        N750   1.321       .  A
N750        C754   1.354       .  A
N751        N752   1.318       .  A
N751       Mn949   2.192       .  S
N752        C753   1.352       .  A
C753        C883   1.480       .  S
C754        C895   1.481       .  S
N755        N761   1.315       .  A
N755        N756   1.319       .  A
N756        C764   1.353       .  A
N757        N758   1.319       .  A
N757        N759   1.314       .  A
N757       Mn763   2.195   1_554  S
N758        C765   1.352       .  A
N759        N760   1.321       .  A
N760        C765   1.356       .  A
N761        N762   1.319       .  A
N761      Mn1135   2.197   1_554  S
N762        C764   1.353       .  A
Mn763      N1305   2.195       .  S
Mn763       N937   2.192       .  S
Mn763      N1133   2.197   1_556  S
C764        C871   1.480       .  S
C765        C922   1.488       .  S
N766        N767   1.319       .  A
N766        N772   1.315       .  A
N766       Mn774   2.200       .  S
N767        C775   1.353       .  A
N768        N770   1.314       .  A
N768        N769   1.319       .  A
N768      Mn1344   2.197       .  S
N769        C776   1.353       .  A
N770        N771   1.320       .  A
N770      Mn1146   2.200       .  S
N771        C776   1.354       .  A
N772        N773   1.321       .  A
N772       Mn972   2.209       .  S
N773        C775   1.356       .  A
Mn774      N1142   2.201   1_545  S
Mn774      Cl973   2.544       .  S
C775        C850   1.492       .  S
C776        C907   1.485       .  S
N777        N778   1.321       .  A
N777        N783   1.316       .  A
N777      Mn1157   2.203       .  S
N778        C788   1.354       .  A
N779        N780   1.320       .  A
N779        N781   1.315       .  A
N779       Mn786   2.202       .  S
N780        C789   1.354       .  A
N781        N782   1.319       .  A
N781       Mn785   2.196       .  S
N782        C789   1.352       .  A
N783        N784   1.320       .  A
N783      Mn1158   2.205       .  S
N784        C788   1.353       .  A
Mn785      N1149   2.204   1_545  S
Mn785      Cl787   2.548       .  S
Mn786      N1326   2.196   1_544  S
Mn786       N958   2.209   1_554  S
Mn786      N1155   2.205   1_545  S
Mn786      Cl787   2.546       .  S
Cl787      Mn960   2.544   1_554  S
C788        C862   1.481       .  S
C789        C835   1.483       .  S
N790        N791   1.321       .  A
N790        N796   1.314       .  A
N790       Mn819   2.204       .  S
N791        C798   1.356       .  A
N792        N794   1.315       .  A
N792        N793   1.320       .  A
N792       Mn808   2.195       .  S
N793        C799   1.353       .  A
N794        N795   1.319       .  A
N794       Mn819   2.200       .  S
N795        C799   1.353       .  A
N796        N797   1.319       .  A
N796       Mn808   2.194       .  S
N797        C798   1.352       .  A
C798        C919   1.488       .  S
C799        C874   1.480       .  S
N800        N806   1.315       .  A
N800        N801   1.321       .  A
N800       Mn830   2.205       .  S
N801        C809   1.354       .  A
N802        N803   1.318       .  A
N802        N804   1.315       .  A
N802       Mn808   2.190       .  S
N803        C810   1.351       .  A
N804        N805   1.320       .  A
N804       Mn830   2.201       .  S
N805        C810   1.354       .  A
N806        N807   1.319       .  A
N806       Mn808   2.193       .  S
N807        C809   1.352       .  A
Mn808      Cl832   2.545       .  S
C809        C898   1.481       .  S
C810        C886   1.479       .  S
N811        N812   1.319       .  A
N811        N817   1.315       .  A
N811       Mn819   2.197       .  S
N812        C820   1.353       .  A
N813        N815   1.316       .  A
N813        N814   1.320       .  A
N813       Mn831   2.205       .  S
N814        C821   1.353       .  A
N815        N816   1.321       .  A
N815       Mn819   2.203       .  S
N816        C821   1.354       .  A
N817        N818   1.320       .  A
N817       Mn831   2.201       .  S
N818        C820   1.354       .  A
Mn819      Cl832   2.548       .  S
C820        C838   1.483       .  S
C821        C859   1.481       .  S
N822        N823   1.320       .  A
N822        N828   1.314       .  A
N822       Mn830   2.200       .  S
N823        C833   1.354       .  A
N824        N825   1.321       .  A
N824        N826   1.315       .  A
N824       Mn831   2.210       .  S
N825        C834   1.356       .  A
N826        N827   1.319       .  A
N826       Mn830   2.200       .  S
N827        C834   1.353       .  A
N828        N829   1.319       .  A
N828       Mn831   2.197       .  S
N829        C833   1.353       .  A
Mn830      Cl832   2.544       .  S
Mn831      Cl832   2.546       .  S
C833        C910   1.485       .  S
C834        C847   1.492       .  S
C835        C836   1.404       .  A
C835        C840   1.415       .  A
C836        C837   1.400       .  A
C836        H841   1.085       .  S
C837        C838   1.415       .  A
C837        C844   1.445       .  S
C838        C839   1.404       .  A
C839        C840   1.400       .  A
C839        H842   1.085       .  S
C840        C843   1.445       .  S
C843        N845   1.157       .  T
C844        N846   1.157       .  T
C847        C848   1.405       .  A
C847        C852   1.417       .  A
C848        C849   1.402       .  A
C848        H853   1.085       .  S
C849        C850   1.417       .  A
C849        C856   1.444       .  S
C850        C851   1.405       .  A
C851        C852   1.401       .  A
C851        H854   1.085       .  S
C852        C855   1.444       .  S
C855        N857   1.158       .  T
C856        N858   1.158       .  T
C859        C860   1.404       .  A
C859        C864   1.413       .  A
C860        C861   1.401       .  A
C860        H865   1.085       .  S
C861        C862   1.413       .  A
C861        C868   1.444       .  S
C862        C863   1.404       .  A
C863        C864   1.401       .  A
C863        H866   1.085       .  S
C864        C867   1.444       .  S
C867        N869   1.157       .  T
C868        N870   1.157       .  T
C871        C872   1.404       .  A
C871        C876   1.413       .  A
C872        C873   1.399       .  A
C872        H877   1.085       .  S
C873        C874   1.413       .  A
C873        C880   1.445       .  S
C874        C875   1.404       .  A
C875        C876   1.399       .  A
C875        H878   1.085       .  S
C876        C879   1.444       .  S
C879        N881   1.157       .  T
C880        N882   1.157       .  T
C883        C884   1.403       .  A
C883        C888   1.414       .  A
C884        C885   1.399       .  A
C884        H889   1.085       .  S
C885        C886   1.414       .  A
C885        C892   1.444       .  S
C886        C887   1.403       .  A
C887        C888   1.399       .  A
C887        H890   1.085       .  S
C888        C891   1.444       .  S
C891        N893   1.157       .  T
C892        N894   1.157       .  T
C895        C896   1.403       .  A
C895        C900   1.414       .  A
C896        C897   1.400       .  A
C896        H901   1.085       .  S
C897        C898   1.414       .  A
C897        C904   1.444       .  S
C898        C899   1.403       .  A
C899        C900   1.400       .  A
C899        H902   1.085       .  S
C900        C903   1.444       .  S
C903        N905   1.157       .  T
C904        N906   1.157       .  T
C907        C908   1.405       .  A
C907        C912   1.415       .  A
C908        C909   1.400       .  A
C908        H913   1.085       .  S
C909        C910   1.415       .  A
C909        C916   1.444       .  S
C910        C911   1.405       .  A
C911        C912   1.400       .  A
C911        H914   1.085       .  S
C912        C915   1.444       .  S
C915        N917   1.157       .  T
C916        N918   1.157       .  T
C919        C920   1.404       .  A
C919        C924   1.416       .  A
C920        C921   1.400       .  A
C920        H925   1.085       .  S
C921        C922   1.416       .  A
C921        C928   1.443       .  S
C922        C923   1.404       .  A
C923        C924   1.400       .  A
C923        H926   1.085       .  S
C924        C927   1.443       .  S
C927        N929   1.157       .  T
C928        N930   1.157       .  T
N931        N932   1.320       .  A
N931        N937   1.314       .  A
N932        C939   1.354       .  A
N933        N935   1.315       .  A
N933        N934   1.319       .  A
N933      Mn1135   2.194       .  S
N934        C940   1.352       .  A
N935        N936   1.321       .  A
N936        C940   1.354       .  A
N937        N938   1.318       .  A
N938        C939   1.352       .  A
C939       C1069   1.480       .  S
C940       C1081   1.481       .  S
N941        N947   1.315       .  A
N941        N942   1.319       .  A
N942        C950   1.353       .  A
N943        N944   1.319       .  A
N943        N945   1.314       .  A
N943       Mn949   2.195       .  S
N944        C951   1.352       .  A
N945        N946   1.321       .  A
N946        C951   1.356       .  A
N947        N948   1.319       .  A
N947      Mn1321   2.197       .  S
N948        C950   1.353       .  A
Mn949      N1119   2.195       .  S
Mn949      N1319   2.197       .  S
C950       C1057   1.480       .  S
C951       C1108   1.488       .  S
N952        N953   1.319       .  A
N952        N958   1.315       .  A
N952       Mn960   2.200       .  S
N953        C961   1.353       .  A
N954        N956   1.314       .  A
N954        N955   1.319       .  A
N954      Mn1158   2.197   1_556  S
N955        C962   1.353       .  A
N956        N957   1.320       .  A
N956      Mn1332   2.200       .  S
N957        C962   1.354       .  A
N958        N959   1.321       .  A
N959        C961   1.356       .  A
Mn960      N1328   2.201   1_545  S
C961       C1036   1.492       .  S
C962       C1093   1.485       .  S
N963        N964   1.321       .  A
N963        N969   1.316       .  A
N963      Mn1343   2.203       .  S
N964        C974   1.354       .  A
N965        N966   1.320       .  A
N965        N967   1.315       .  A
N965       Mn972   2.202       .  S
N966        C975   1.354       .  A
N967        N968   1.319       .  A
N967       Mn971   2.196       .  S
N968        C975   1.352       .  A
N969        N970   1.320       .  A
N969      Mn1344   2.205       .  S
N970        C974   1.353       .  A
Mn971      N1335   2.204   1_545  S
Mn971      Cl973   2.548       .  S
Mn972      N1140   2.196   1_545  S
Mn972      N1341   2.205   1_545  S
Mn972      Cl973   2.546       .  S
C974       C1048   1.481       .  S
C975       C1021   1.483       .  S
N976        N977   1.321       .  A
N976        N982   1.314       .  A
N976      Mn1005   2.204       .  S
N977        C984   1.356       .  A
N978        N980   1.315       .  A
N978        N979   1.319       .  A
N978       Mn994   2.195       .  S
N979        C985   1.353       .  A
N980        N981   1.319       .  A
N980      Mn1005   2.200       .  S
N981        C985   1.353       .  A
N982        N983   1.319       .  A
N982       Mn994   2.194       .  S
N983        C984   1.352       .  A
C984       C1105   1.488       .  S
C985       C1060   1.480       .  S
N986        N992   1.315       .  A
N986        N987   1.321       .  A
N986      Mn1016   2.205       .  S
N987        C995   1.354       .  A
N988        N989   1.318       .  A
N988        N990   1.315       .  A
N988       Mn994   2.190       .  S
N989        C996   1.351       .  A
N990        N991   1.320       .  A
N990      Mn1016   2.201       .  S
N991        C996   1.354       .  A
N992        N993   1.319       .  A
N992       Mn994   2.193       .  S
N993        C995   1.352       .  A
Mn994     Cl1018   2.545       .  S
C995       C1084   1.481       .  S
C996       C1072   1.479       .  S
N997        N998   1.319       .  A
N997       N1003   1.315       .  A
N997      Mn1005   2.197       .  S
N998       C1006   1.353       .  A
N999       N1001   1.316       .  A
N999       N1000   1.320       .  A
N999      Mn1017   2.205       .  S
N1000      C1007   1.353       .  A
N1001      N1002   1.321       .  A
N1001     Mn1005   2.203       .  S
N1002      C1007   1.354       .  A
N1003      N1004   1.320       .  A
N1003     Mn1017   2.201       .  S
N1004      C1006   1.354       .  A
Mn1005    Cl1018   2.548       .  S
C1006      C1024   1.483       .  S
C1007      C1045   1.481       .  S
N1008      N1009   1.320       .  A
N1008      N1014   1.314       .  A
N1008     Mn1016   2.200       .  S
N1009      C1019   1.354       .  A
N1010      N1011   1.321       .  A
N1010      N1012   1.315       .  A
N1010     Mn1017   2.210       .  S
N1011      C1020   1.356       .  A
N1012      N1013   1.319       .  A
N1012     Mn1016   2.199       .  S
N1013      C1020   1.353       .  A
N1014      N1015   1.319       .  A
N1014     Mn1017   2.197       .  S
N1015      C1019   1.353       .  A
Mn1016    Cl1018   2.544       .  S
Mn1017    Cl1018   2.546       .  S
C1019      C1096   1.485       .  S
C1020      C1033   1.492       .  S
C1021      C1022   1.404       .  A
C1021      C1026   1.415       .  A
C1022      C1023   1.400       .  A
C1022      H1027   1.085       .  S
C1023      C1024   1.415       .  A
C1023      C1030   1.445       .  S
C1024      C1025   1.404       .  A
C1025      C1026   1.400       .  A
C1025      H1028   1.085       .  S
C1026      C1029   1.445       .  S
C1029      N1031   1.157       .  T
C1030      N1032   1.157       .  T
C1033      C1034   1.405       .  A
C1033      C1038   1.417       .  A
C1034      C1035   1.402       .  A
C1034      H1039   1.085       .  S
C1035      C1036   1.417       .  A
C1035      C1042   1.444       .  S
C1036      C1037   1.405       .  A
C1037      C1038   1.401       .  A
C1037      H1040   1.085       .  S
C1038      C1041   1.444       .  S
C1041      N1043   1.158       .  T
C1042      N1044   1.158       .  T
C1045      C1046   1.404       .  A
C1045      C1050   1.413       .  A
C1046      C1047   1.401       .  A
C1046      H1051   1.085       .  S
C1047      C1048   1.413       .  A
C1047      C1054   1.444       .  S
C1048      C1049   1.404       .  A
C1049      C1050   1.401       .  A
C1049      H1052   1.085       .  S
C1050      C1053   1.444       .  S
C1053      N1055   1.157       .  T
C1054      N1056   1.157       .  T
C1057      C1058   1.404       .  A
C1057      C1062   1.413       .  A
C1058      C1059   1.399       .  A
C1058      H1063   1.085       .  S
C1059      C1060   1.413       .  A
C1059      C1066   1.445       .  S
C1060      C1061   1.404       .  A
C1061      C1062   1.399       .  A
C1061      H1064   1.085       .  S
C1062      C1065   1.444       .  S
C1065      N1067   1.157       .  T
C1066      N1068   1.157       .  T
C1069      C1070   1.403       .  A
C1069      C1074   1.414       .  A
C1070      C1071   1.399       .  A
C1070      H1075   1.085       .  S
C1071      C1072   1.414       .  A
C1071      C1078   1.444       .  S
C1072      C1073   1.403       .  A
C1073      C1074   1.399       .  A
C1073      H1076   1.085       .  S
C1074      C1077   1.444       .  S
C1077      N1079   1.157       .  T
C1078      N1080   1.157       .  T
C1081      C1082   1.403       .  A
C1081      C1086   1.414       .  A
C1082      C1083   1.400       .  A
C1082      H1087   1.085       .  S
C1083      C1084   1.414       .  A
C1083      C1090   1.444       .  S
C1084      C1085   1.403       .  A
C1085      C1086   1.400       .  A
C1085      H1088   1.085       .  S
C1086      C1089   1.444       .  S
C1089      N1091   1.157       .  T
C1090      N1092   1.157       .  T
C1093      C1094   1.405       .  A
C1093      C1098   1.415       .  A
C1094      C1095   1.400       .  A
C1094      H1099   1.085       .  S
C1095      C1096   1.415       .  A
C1095      C1102   1.444       .  S
C1096      C1097   1.405       .  A
C1097      C1098   1.400       .  A
C1097      H1100   1.085       .  S
C1098      C1101   1.444       .  S
C1101      N1103   1.157       .  T
C1102      N1104   1.157       .  T
C1105      C1106   1.404       .  A
C1105      C1110   1.416       .  A
C1106      C1107   1.400       .  A
C1106      H1111   1.085       .  S
C1107      C1108   1.416       .  A
C1107      C1114   1.443       .  S
C1108      C1109   1.404       .  A
C1109      C1110   1.400       .  A
C1109      H1112   1.085       .  S
C1110      C1113   1.443       .  S
C1113      N1115   1.157       .  T
C1114      N1116   1.157       .  T
N1117      N1118   1.320       .  A
N1117      N1123   1.314       .  A
N1118      C1125   1.354       .  A
N1119      N1121   1.315       .  A
N1119      N1120   1.319       .  A
N1120      C1126   1.352       .  A
N1121      N1122   1.320       .  A
N1122      C1126   1.354       .  A
N1123      N1124   1.318       .  A
N1123     Mn1321   2.193   1_565  S
N1124      C1125   1.352       .  A
C1125      C1255   1.481       .  S
C1126      C1267   1.481       .  S
N1127      N1133   1.315       .  A
N1127      N1128   1.319       .  A
N1128      C1136   1.353       .  A
N1129      N1130   1.319       .  A
N1129      N1131   1.314       .  A
N1129     Mn1135   2.193   1_564  S
N1130      C1137   1.352       .  A
N1131      N1132   1.320       .  A
N1132      C1137   1.356       .  A
N1133      N1134   1.320       .  A
N1134      C1136   1.353       .  A
Mn1135     N1309   2.193   1_545  S
C1136      C1243   1.481       .  S
C1137      C1294   1.488       .  S
N1138      N1139   1.319       .  A
N1138      N1144   1.315       .  A
N1138     Mn1146   2.199       .  S
N1139      C1147   1.353       .  A
N1140      N1142   1.315       .  A
N1140      N1141   1.319       .  A
N1141      C1148   1.353       .  A
N1142      N1143   1.320       .  A
N1143      C1148   1.354       .  A
N1144      N1145   1.321       .  A
N1144     Mn1344   2.210       .  S
N1145      C1147   1.356       .  A
Mn1146    Cl1345   2.544       .  S
C1147      C1222   1.492       .  S
C1148      C1279   1.484       .  S
N1149      N1150   1.321       .  A
N1149      N1155   1.316       .  A
N1150      C1160   1.354       .  A
N1151      N1152   1.320       .  A
N1151      N1153   1.315       .  A
N1151     Mn1158   2.201       .  S
N1152      C1161   1.354       .  A
N1153      N1154   1.319       .  A
N1153     Mn1157   2.197       .  S
N1154      C1161   1.353       .  A
N1155      N1156   1.321       .  A
N1156      C1160   1.353       .  A
Mn1157    Cl1159   2.548       .  S
Mn1158     N1330   2.210   1_554  S
Mn1158    Cl1159   2.546       .  S
Cl1159    Mn1332   2.544   1_554  S
C1160      C1234   1.482       .  S
C1161      C1207   1.483       .  S
N1162      N1163   1.321       .  A
N1162      N1168   1.314       .  A
N1162     Mn1191   2.202       .  S
N1163      C1170   1.356       .  A
N1164      N1166   1.315       .  A
N1164      N1165   1.320       .  A
N1164     Mn1180   2.196       .  S
N1165      C1171   1.353       .  A
N1166      N1167   1.320       .  A
N1166     Mn1191   2.202       .  S
N1167      C1171   1.354       .  A
N1168      N1169   1.318       .  A
N1168     Mn1180   2.195       .  S
N1169      C1170   1.352       .  A
C1170      C1291   1.488       .  S
C1171      C1246   1.481       .  S
N1172      N1178   1.315       .  A
N1172      N1173   1.320       .  A
N1172     Mn1202   2.204       .  S
N1173      C1181   1.354       .  A
N1174      N1175   1.318       .  A
N1174      N1176   1.315       .  A
N1174     Mn1180   2.192       .  S
N1175      C1182   1.352       .  A
N1176      N1177   1.320       .  A
N1176     Mn1202   2.202       .  S
N1177      C1182   1.354       .  A
N1178      N1179   1.319       .  A
N1178     Mn1180   2.194       .  S
N1179      C1181   1.352       .  A
Mn1180    Cl1204   2.545       .  S
C1181      C1270   1.481       .  S
C1182      C1258   1.480       .  S
N1183      N1184   1.319       .  A
N1183      N1189   1.315       .  A
N1183     Mn1191   2.196       .  S
N1184      C1192   1.352       .  A
N1185      N1187   1.316       .  A
N1185      N1186   1.321       .  A
N1185     Mn1203   2.205       .  S
N1186      C1193   1.353       .  A
N1187      N1188   1.321       .  A
N1187     Mn1191   2.204       .  S
N1188      C1193   1.354       .  A
N1189      N1190   1.320       .  A
N1189     Mn1203   2.202       .  S
N1190      C1192   1.354       .  A
Mn1191    Cl1204   2.548       .  S
C1192      C1210   1.483       .  S
C1193      C1231   1.482       .  S
N1194      N1195   1.320       .  A
N1194      N1200   1.315       .  A
N1194     Mn1202   2.201       .  S
N1195      C1205   1.354       .  A
N1196      N1197   1.321       .  A
N1196      N1198   1.315       .  A
N1196     Mn1203   2.209       .  S
N1197      C1206   1.356       .  A
N1198      N1199   1.319       .  A
N1198     Mn1202   2.200       .  S
N1199      C1206   1.353       .  A
N1200      N1201   1.319       .  A
N1200     Mn1203   2.196       .  S
N1201      C1205   1.353       .  A
Mn1202    Cl1204   2.544       .  S
Mn1203    Cl1204   2.546       .  S
C1205      C1282   1.484       .  S
C1206      C1219   1.492       .  S
C1207      C1208   1.404       .  A
C1207      C1212   1.415       .  A
C1208      C1209   1.400       .  A
C1208      H1213   1.085       .  S
C1209      C1210   1.414       .  A
C1209      C1216   1.445       .  S
C1210      C1211   1.404       .  A
C1211      C1212   1.400       .  A
C1211      H1214   1.085       .  S
C1212      C1215   1.445       .  S
C1215      N1217   1.157       .  T
C1216      N1218   1.157       .  T
C1219      C1220   1.405       .  A
C1219      C1224   1.417       .  A
C1220      C1221   1.401       .  A
C1220      H1225   1.085       .  S
C1221      C1222   1.417       .  A
C1221      C1228   1.444       .  S
C1222      C1223   1.405       .  A
C1223      C1224   1.402       .  A
C1223      H1226   1.085       .  S
C1224      C1227   1.444       .  S
C1227      N1229   1.158       .  T
C1228      N1230   1.158       .  T
C1231      C1232   1.404       .  A
C1231      C1236   1.413       .  A
C1232      C1233   1.401       .  A
C1232      H1237   1.085       .  S
C1233      C1234   1.413       .  A
C1233      C1240   1.444       .  S
C1234      C1235   1.404       .  A
C1235      C1236   1.401       .  A
C1235      H1238   1.085       .  S
C1236      C1239   1.444       .  S
C1239      N1241   1.157       .  T
C1240      N1242   1.157       .  T
C1243      C1244   1.404       .  A
C1243      C1248   1.413       .  A
C1244      C1245   1.399       .  A
C1244      H1249   1.085       .  S
C1245      C1246   1.414       .  A
C1245      C1252   1.445       .  S
C1246      C1247   1.404       .  A
C1247      C1248   1.399       .  A
C1247      H1250   1.085       .  S
C1248      C1251   1.444       .  S
C1251      N1253   1.157       .  T
C1252      N1254   1.157       .  T
C1255      C1256   1.403       .  A
C1255      C1260   1.414       .  A
C1256      C1257   1.400       .  A
C1256      H1261   1.085       .  S
C1257      C1258   1.415       .  A
C1257      C1264   1.444       .  S
C1258      C1259   1.403       .  A
C1259      C1260   1.399       .  A
C1259      H1262   1.085       .  S
C1260      C1263   1.444       .  S
C1263      N1265   1.157       .  T
C1264      N1266   1.157       .  T
C1267      C1268   1.403       .  A
C1267      C1272   1.414       .  A
C1268      C1269   1.400       .  A
C1268      H1273   1.085       .  S
C1269      C1270   1.414       .  A
C1269      C1276   1.444       .  S
C1270      C1271   1.403       .  A
C1271      C1272   1.400       .  A
C1271      H1274   1.085       .  S
C1272      C1275   1.444       .  S
C1275      N1277   1.157       .  T
C1276      N1278   1.157       .  T
C1279      C1280   1.404       .  A
C1279      C1284   1.415       .  A
C1280      C1281   1.400       .  A
C1280      H1285   1.085       .  S
C1281      C1282   1.415       .  A
C1281      C1288   1.444       .  S
C1282      C1283   1.404       .  A
C1283      C1284   1.400       .  A
C1283      H1286   1.085       .  S
C1284      C1287   1.444       .  S
C1287      N1289   1.157       .  T
C1288      N1290   1.157       .  T
C1291      C1292   1.404       .  A
C1291      C1296   1.416       .  A
C1292      C1293   1.400       .  A
C1292      H1297   1.085       .  S
C1293      C1294   1.417       .  A
C1293      C1300   1.443       .  S
C1294      C1295   1.404       .  A
C1295      C1296   1.399       .  A
C1295      H1298   1.085       .  S
C1296      C1299   1.443       .  S
C1299      N1301   1.157       .  T
C1300      N1302   1.157       .  T
N1303      N1304   1.320       .  A
N1303      N1309   1.314       .  A
N1304      C1311   1.354       .  A
N1305      N1307   1.315       .  A
N1305      N1306   1.319       .  A
N1306      C1312   1.352       .  A
N1307      N1308   1.320       .  A
N1308      C1312   1.354       .  A
N1309      N1310   1.318       .  A
N1310      C1311   1.352       .  A
C1311      C1441   1.481       .  S
C1312      C1453   1.481       .  S
N1313      N1319   1.315       .  A
N1313      N1314   1.319       .  A
N1314      C1322   1.353       .  A
N1315      N1316   1.319       .  A
N1315      N1317   1.314       .  A
N1315     Mn1321   2.193   1_565  S
N1316      C1323   1.352       .  A
N1317      N1318   1.320       .  A
N1318      C1323   1.356       .  A
N1319      N1320   1.320       .  A
N1320      C1322   1.353       .  A
C1322      C1429   1.481       .  S
C1323      C1480   1.488       .  S
N1324      N1325   1.319       .  A
N1324      N1330   1.315       .  A
N1324     Mn1332   2.200       .  S
N1325      C1333   1.353       .  A
N1326      N1328   1.315       .  A
N1326      N1327   1.319       .  A
N1327      C1334   1.353       .  A
N1328      N1329   1.320       .  A
N1329      C1334   1.354       .  A
N1330      N1331   1.321       .  A
N1331      C1333   1.356       .  A
C1333      C1408   1.492       .  S
C1334      C1465   1.484       .  S
N1335      N1336   1.321       .  A
N1335      N1341   1.316       .  A
N1336      C1346   1.354       .  A
N1337      N1338   1.320       .  A
N1337      N1339   1.315       .  A
N1337     Mn1344   2.201       .  S
N1338      C1347   1.354       .  A
N1339      N1340   1.319       .  A
N1339     Mn1343   2.197       .  S
N1340      C1347   1.353       .  A
N1341      N1342   1.321       .  A
N1342      C1346   1.353       .  A
Mn1343    Cl1345   2.548       .  S
Mn1344    Cl1345   2.546       .  S
C1346      C1420   1.482       .  S
C1347      C1393   1.483       .  S
N1348      N1349   1.321       .  A
N1348      N1354   1.314       .  A
N1348     Mn1377   2.202       .  S
N1349      C1356   1.356       .  A
N1350      N1352   1.315       .  A
N1350      N1351   1.320       .  A
N1350     Mn1366   2.196       .  S
N1351      C1357   1.353       .  A
N1352      N1353   1.320       .  A
N1352     Mn1377   2.202       .  S
N1353      C1357   1.354       .  A
N1354      N1355   1.318       .  A
N1354     Mn1366   2.195       .  S
N1355      C1356   1.352       .  A
C1356      C1477   1.488       .  S
C1357      C1432   1.481       .  S
N1358      N1364   1.315       .  A
N1358      N1359   1.320       .  A
N1358     Mn1388   2.204       .  S
N1359      C1367   1.354       .  A
N1360      N1361   1.318       .  A
N1360      N1362   1.315       .  A
N1360     Mn1366   2.192       .  S
N1361      C1368   1.352       .  A
N1362      N1363   1.320       .  A
N1362     Mn1388   2.202       .  S
N1363      C1368   1.354       .  A
N1364      N1365   1.319       .  A
N1364     Mn1366   2.194       .  S
N1365      C1367   1.352       .  A
Mn1366    Cl1390   2.545       .  S
C1367      C1456   1.481       .  S
C1368      C1444   1.480       .  S
N1369      N1370   1.319       .  A
N1369      N1375   1.315       .  A
N1369     Mn1377   2.196       .  S
N1370      C1378   1.352       .  A
N1371      N1373   1.316       .  A
N1371      N1372   1.321       .  A
N1371     Mn1389   2.205       .  S
N1372      C1379   1.353       .  A
N1373      N1374   1.321       .  A
N1373     Mn1377   2.204       .  S
N1374      C1379   1.354       .  A
N1375      N1376   1.320       .  A
N1375     Mn1389   2.202       .  S
N1376      C1378   1.354       .  A
Mn1377    Cl1390   2.548       .  S
C1378      C1396   1.483       .  S
C1379      C1417   1.482       .  S
N1380      N1381   1.320       .  A
N1380      N1386   1.315       .  A
N1380     Mn1388   2.201       .  S
N1381      C1391   1.354       .  A
N1382      N1383   1.321       .  A
N1382      N1384   1.315       .  A
N1382     Mn1389   2.209       .  S
N1383      C1392   1.356       .  A
N1384      N1385   1.319       .  A
N1384     Mn1388   2.200       .  S
N1385      C1392   1.353       .  A
N1386      N1387   1.319       .  A
N1386     Mn1389   2.196       .  S
N1387      C1391   1.353       .  A
Mn1388    Cl1390   2.544       .  S
Mn1389    Cl1390   2.546       .  S
C1391      C1468   1.484       .  S
C1392      C1405   1.492       .  S
C1393      C1394   1.404       .  A
C1393      C1398   1.415       .  A
C1394      C1395   1.400       .  A
C1394      H1399   1.085       .  S
C1395      C1396   1.415       .  A
C1395      C1402   1.445       .  S
C1396      C1397   1.404       .  A
C1397      C1398   1.400       .  A
C1397      H1400   1.085       .  S
C1398      C1401   1.445       .  S
C1401      N1403   1.157       .  T
C1402      N1404   1.157       .  T
C1405      C1406   1.405       .  A
C1405      C1410   1.417       .  A
C1406      C1407   1.401       .  A
C1406      H1411   1.085       .  S
C1407      C1408   1.417       .  A
C1407      C1414   1.444       .  S
C1408      C1409   1.405       .  A
C1409      C1410   1.402       .  A
C1409      H1412   1.085       .  S
C1410      C1413   1.444       .  S
C1413      N1415   1.158       .  T
C1414      N1416   1.158       .  T
C1417      C1418   1.404       .  A
C1417      C1422   1.413       .  A
C1418      C1419   1.401       .  A
C1418      H1423   1.085       .  S
C1419      C1420   1.413       .  A
C1419      C1426   1.444       .  S
C1420      C1421   1.404       .  A
C1421      C1422   1.401       .  A
C1421      H1424   1.085       .  S
C1422      C1425   1.444       .  S
C1425      N1427   1.157       .  T
C1426      N1428   1.157       .  T
C1429      C1430   1.404       .  A
C1429      C1434   1.413       .  A
C1430      C1431   1.399       .  A
C1430      H1435   1.085       .  S
C1431      C1432   1.414       .  A
C1431      C1438   1.445       .  S
C1432      C1433   1.404       .  A
C1433      C1434   1.399       .  A
C1433      H1436   1.085       .  S
C1434      C1437   1.444       .  S
C1437      N1439   1.157       .  T
C1438      N1440   1.157       .  T
C1441      C1442   1.403       .  A
C1441      C1446   1.414       .  A
C1442      C1443   1.400       .  A
C1442      H1447   1.085       .  S
C1443      C1444   1.415       .  A
C1443      C1450   1.444       .  S
C1444      C1445   1.403       .  A
C1445      C1446   1.399       .  A
C1445      H1448   1.085       .  S
C1446      C1449   1.444       .  S
C1449      N1451   1.157       .  T
C1450      N1452   1.157       .  T
C1453      C1454   1.403       .  A
C1453      C1458   1.414       .  A
C1454      C1455   1.400       .  A
C1454      H1459   1.085       .  S
C1455      C1456   1.414       .  A
C1455      C1462   1.444       .  S
C1456      C1457   1.403       .  A
C1457      C1458   1.400       .  A
C1457      H1460   1.085       .  S
C1458      C1461   1.444       .  S
C1461      N1463   1.157       .  T
C1462      N1464   1.157       .  T
C1465      C1466   1.404       .  A
C1465      C1470   1.415       .  A
C1466      C1467   1.400       .  A
C1466      H1471   1.085       .  S
C1467      C1468   1.415       .  A
C1467      C1474   1.444       .  S
C1468      C1469   1.404       .  A
C1469      C1470   1.400       .  A
C1469      H1472   1.085       .  S
C1470      C1473   1.444       .  S
C1473      N1475   1.157       .  T
C1474      N1476   1.157       .  T
C1477      C1478   1.405       .  A
C1477      C1482   1.416       .  A
C1478      C1479   1.400       .  A
C1478      H1483   1.085       .  S
C1479      C1480   1.417       .  A
C1479      C1486   1.443       .  S
C1480      C1481   1.404       .  A
C1481      C1482   1.399       .  A
C1481      H1484   1.085       .  S
C1482      C1485   1.443       .  S
C1485      N1487   1.157       .  T
C1486      N1488   1.157       .  T
