geometry optimzed in LAMMPS
_audit_creation_date              2020-11-30 
_audit_creation_method            'lammps2cif' 
_symmetry_space_group_name_H-M    'P1' 
_symmetry_Int_Tables_number       1 
_symmetry_cell_setting            triclinic 
loop_ 
_symmetry_equiv_pos_as_xyz 
  x,y,z 
_cell_length_a                    42.950298476906774 
_cell_length_b                    43.07486155679034 
_cell_length_c                    43.09695099952741 
_cell_angle_alpha                 89.77658166130385 
_cell_angle_beta                  90.05306772686622 
_cell_angle_gamma                 89.86680663368726 
loop_ 
_atom_site_label 
_atom_site_type_symbol 
_atom_site_fract_x 
_atom_site_fract_y 
_atom_site_fract_z 
_atom_site_charge 
C1          C  0.76565934  0.73137118  0.77540385     0.04620
C2          C  0.74048929  0.75028972  0.78399053    -0.11530
C3          C  0.73344159  0.77713877  0.76681787     0.02120
C4          C  0.75171155  0.78502912  0.74098508    -0.10060
C5          C  0.77635798  0.76577898  0.73189759     0.04610
C6          C  0.78330491  0.73898324  0.74919194    -0.09480
H7          H  0.72627006  0.74398996  0.80379577     0.10200
H8          H  0.74598215  0.80541097  0.72727071     0.07730
H9          H  0.80225326  0.72393854  0.74209041     0.07580
C10         C  0.26176811  0.79600083  0.25196891     0.04620
C11         C  0.28006371  0.78919786  0.27799764    -0.11530
C12         C  0.27439014  0.76239699  0.29578757     0.02120
C13         C  0.24939487  0.74306359  0.28781110    -0.10060
C14         C  0.23054931  0.74998848  0.26197573     0.04610
C15         C  0.23702609  0.77641377  0.24402368    -0.09480
H16         H  0.29902483  0.80458088  0.28410200     0.10200
H17         H  0.24475385  0.72246839  0.30154587     0.07730
H18         H  0.22297536  0.78165754  0.22375452     0.07580
C19         C  0.79978975  0.76951033  0.26628564     0.04620
C20         C  0.79252065  0.74256529  0.24986043    -0.11530
C21         C  0.76573359  0.72565122  0.25731790     0.02120
C22         C  0.74628558  0.73568417  0.28125127    -0.10060
C23         C  0.75345991  0.76262963  0.29803867     0.04610
C24         C  0.78032046  0.77951305  0.29040094    -0.09480
H25         H  0.80777393  0.73465290  0.23146953     0.10200
H26         H  0.72603632  0.72197933  0.28733251     0.07730
H27         H  0.78614458  0.80032804  0.30318579     0.07580
C28         C  0.22950692  0.27484414  0.26148611     0.04620
C29         C  0.23623027  0.24785699  0.27853174    -0.11530
C30         C  0.26221086  0.22960585  0.27103519     0.02120
C31         C  0.28150834  0.23830922  0.24638590    -0.10060
C32         C  0.27453931  0.26482939  0.22870523     0.04610
C33         C  0.24856948  0.28300876  0.23628678    -0.09480
H34         H  0.22148921  0.24120838  0.29783925     0.10200
H35         H  0.30136687  0.22396030  0.24039070     0.07730
H36         H  0.24315248  0.30342192  0.22249808     0.07580
C37         C  0.74609892  0.25910485  0.23450269     0.04620
C38         C  0.74115815  0.28510379  0.25358022    -0.11530
C39         C  0.75815038  0.28891123  0.28136790     0.02120
C40         C  0.77974531  0.26549739  0.28960802    -0.10060
C41         C  0.78741562  0.24183560  0.26889132     0.04610
C42         C  0.77022586  0.23834616  0.24156633    -0.09480
H43         H  0.72467961  0.30251213  0.24592452     0.10200
H44         H  0.79199090  0.26614133  0.31151445     0.07730
H45         H  0.77561736  0.21946395  0.22589321     0.07580
C46         C  0.76194380  0.29712456  0.75216776     0.04620
C47         C  0.73673301  0.27814143  0.74404176    -0.11530
C48         C  0.72966327  0.25175707  0.76188511     0.02120
C49         C  0.74816194  0.24439197  0.78781144    -0.10060
C50         C  0.77344079  0.26320219  0.79598453     0.04610
C51         C  0.77993800  0.28979464  0.77824637    -0.09480
H52         H  0.72275681  0.28383563  0.72384440     0.10200
H53         H  0.74296419  0.22390860  0.80152611     0.07730
H54         H  0.79920668  0.30471326  0.78456429     0.07580
C55         C  0.24272667  0.75969624  0.73518180     0.04620
C56         C  0.26687485  0.73980752  0.74421180    -0.11530
C57         C  0.29151322  0.75025615  0.76310775     0.02120
C58         C  0.28893548  0.78007398  0.77634779    -0.10060
C59         C  0.26247359  0.79857415  0.77069135     0.04610
C60         C  0.24003040  0.78877787  0.74934193    -0.09480
H61         H  0.26668457  0.71636105  0.73534394     0.10200
H62         H  0.30718871  0.78917270  0.79098927     0.07730
H63         H  0.22087952  0.80411037  0.74337860     0.07580
O64         O  0.98065571  0.05338675  0.04685815    -0.86860
C65         C  0.05732906  0.10594974  0.03544985     0.89170
Mg66       Mg  0.97774229  0.02123319  0.08464410     1.58150
O67         O  0.05270090  0.04455425  0.98196481    -0.86590
O68         O  0.98040949  0.05202035  0.99578864    -0.73920
C69         C  0.11551412  0.95124699  0.08718857     0.94220
O70         O  0.02718490  0.08138820  0.09831262    -0.73730
O71         O  0.09208766  0.95389668  0.10510332    -0.81240
Mg72       Mg  0.99550895  0.09948676  0.05922340     1.57960
C73         C  0.13024981  0.98942526  0.96553854     0.94150
O74         O  0.96306262  0.12304879  0.02292442    -0.79500
H75         H  0.02875743  0.02155673  0.94957774    -0.04840
C76         C  0.10690906  0.03110572  0.05716835     0.89080
O77         O  0.99188897  0.98077198  0.05298408    -0.74010
O78         O  0.03249465  0.09404945  0.02724690    -0.86770
O79         O  0.12252294  0.01803935  0.96283277    -0.79580
C80         C  0.08844436  0.11694465  0.95716593     0.94260
C81         C  0.96470119  0.13171585  0.99460756     0.94110
Mg82       Mg  0.08060766  0.97712975  0.02170750     1.57950
O83         O  0.11409763  0.95964005  0.05889790    -0.79510
O84         O  0.04924246  0.99363736  0.98171500    -0.73750
O85         O  0.05984722  0.11604775  0.96494846    -0.79590
O86         O  0.95867408  0.10568247  0.09609673    -0.81300
O87         O  0.01842235  0.96044793  0.12384660    -0.79620
C88         C  0.04337494  0.02017122  0.96997160     0.88550
O89         O  0.04301058  0.98004564  0.05403818    -0.86760
O90         O  0.09422314  0.02338402  0.03261547    -0.86870
O91         O  0.09598032  0.02332443  0.08344557    -0.73920
Mg92       Mg  0.02116806  0.08302659  0.98042937     1.57970
O93         O  0.10560313  0.09277989  0.95853940    -0.81300
H94         H  0.94787348  0.03103001  0.02274472    -0.05020
O95         O  0.02498196  0.03062653  0.09666411    -0.86570
H96         H  0.04912540  0.05318093  0.12918538    -0.04850
H97         H  0.01814446  0.94820807  0.03125997    -0.05020
C98         C  0.03409717  0.05477728  0.10910630     0.88530
C99         C  0.96855267  0.04527113  0.02204153     0.89110
C100        C  0.01790837  0.96857453  0.04583442     0.89160
H101        H  0.12740988  0.04558814  0.05625925    -0.05000
O102        O  0.08348450  0.09472173  0.02750308    -0.74030
Mg103      Mg  0.05598805  0.99230184  0.10065222     1.58000
H104        H  0.05677001  0.12597636  0.05047840    -0.05020
C105        C  0.95480856  0.08776683  0.11931602     0.94150
O106        O  0.97375314  0.98681202  0.12351905    -0.81260
C107        C  0.99046398  0.96441734  0.13325046     0.94210
O108        O  0.98648171  0.12243171  0.97691083    -0.81240
Mg109      Mg  0.09977759  0.05537327  0.99543767     1.58180
O110        O  0.96175702  0.05903969  0.11830967    -0.79580
O111        O  0.11921169  0.97257587  0.98710187    -0.81270
C112        C  0.13424021  0.29575205  0.94180014     0.04620
C113        C  0.12815258  0.26581311  0.95352385    -0.11530
C114        C  0.14089478  0.23949164  0.93951614     0.02120
C115        C  0.16248458  0.24332248  0.91575989    -0.10060
C116        C  0.16721385  0.27240246  0.90156880     0.04610
C117        C  0.15323053  0.29888071  0.91516835    -0.09480
H118        H  0.11248493  0.26277502  0.97298813     0.10200
H119        H  0.17382784  0.22284845  0.90669271     0.07730
H120        H  0.15574186  0.32149963  0.90448908     0.07580
C121        C  0.93774133  0.13171256  0.29724953     0.04620
C122        C  0.91349337  0.15348232  0.30170288    -0.11530
C123        C  0.89691699  0.16540363  0.27595100     0.02120
C124        C  0.90422758  0.15482270  0.24610727    -0.10060
C125        C  0.92823051  0.13366881  0.24145957     0.04610
C126        C  0.94536839  0.12269397  0.26677511    -0.09480
H127        H  0.90719357  0.16063428  0.32492726     0.10200
H128        H  0.89076151  0.16268875  0.22626488     0.07730
H129        H  0.96424321  0.10647680  0.26270052     0.07580
C130        C  0.29515822  0.93756883  0.13381471     0.04620
C131        C  0.29935853  0.91520785  0.15742670    -0.11530
C132        C  0.27357383  0.89970811  0.17001727     0.02120
C133        C  0.24370045  0.90629320  0.15899827    -0.10060
C134        C  0.23904315  0.92813854  0.13540406     0.04610
C135        C  0.26483139  0.94389490  0.12297854    -0.09480
H136        H  0.32251994  0.90968703  0.16579425     0.10200
H137        H  0.22405588  0.89336517  0.16808757     0.07730
H138        H  0.26135917  0.96054271  0.10437546     0.07580
O139        O  0.01204664  0.58995341  0.47238699    -0.86860
C140        C  0.04591722  0.50223825  0.47103900     0.89170
Mg141      Mg  0.99280490  0.61008354  0.51260520     1.58150
O142        O  0.97451686  0.51387508  0.43392596    -0.86590
O143        O  0.99941850  0.58105072  0.42409576    -0.73920
C144        C  0.89523074  0.50331719  0.56723535     0.94220
O145        O  0.04626171  0.55368671  0.52712497    -0.73730
O146        O  0.91079705  0.52601207  0.57817732    -0.81240
Mg147      Mg  0.05740832  0.57024673  0.47710930     1.57960
C148        C  0.90029515  0.45790991  0.44658815     0.94150
O149        O  0.06946628  0.58892045  0.42722347    -0.79500
H150        H  0.94872739  0.53575702  0.40191946    -0.04840
C151        C  0.97094586  0.48057054  0.52210746     0.89080
O152        O  0.94340694  0.59982315  0.49573099    -0.74010
O153        O  0.03798612  0.52739208  0.45930858    -0.86770
O154        O  0.92769892  0.45808269  0.43511868    -0.79580
C155        C  0.02269095  0.45592285  0.39642273     0.94260
C156        C  0.06961607  0.57747553  0.39989352     0.94110
Mg157      Mg  0.91565470  0.51176657  0.49247284     1.57950
O158        O  0.89869702  0.49477395  0.53927937    -0.79510
O159        O  0.92667113  0.52879560  0.44299596    -0.73750
O160        O  0.03375868  0.48310449  0.39975636    -0.79590
O161        O  0.07872713  0.61477171  0.49858069    -0.81300
O162        O  0.93637404  0.59774308  0.56907063    -0.79620
C163        C  0.95003352  0.52623668  0.42512840     0.88550
O164        O  0.93461681  0.55238549  0.51129542    -0.86760
O165        O  0.95960678  0.48919246  0.49703096    -0.86870
O166        O  0.97221432  0.49840199  0.54563474    -0.73920
Mg167      Mg  0.01629920  0.53121552  0.41485906     1.57970
O168        O  0.99829047  0.44726783  0.41081277    -0.81300
H169        H  0.99196310  0.62227689  0.44554402    -0.05020
O170        O  0.99745648  0.56655711  0.53650253    -0.86570
H171        H  0.02452701  0.54586505  0.56828648    -0.04850
H172        H  0.90195980  0.57806063  0.49024164    -0.05020
C173        C  0.02266522  0.55524419  0.54505645     0.88530
C174        C  0.00103935  0.59891802  0.44739922     0.89110
C175        C  0.92545527  0.57676505  0.49916983     0.89160
H176        H  0.98055604  0.45742095  0.52391604    -0.05000
O177        O  0.02755452  0.47898927  0.47211027    -0.74030
Mg178      Mg  0.95498627  0.54819764  0.55638356     1.58000
H179        H  0.06893292  0.50005315  0.48097905    -0.05020
C180        C  0.06751490  0.63065153  0.52090053     0.94150
O181        O  0.97192133  0.63237347  0.55391179    -0.81260
C182        C  0.94685332  0.62547470  0.56771732     0.94210
O183        O  0.05944535  0.55052524  0.39423725    -0.81240
Mg184      Mg  0.97736889  0.46922929  0.45459576     1.58180
O185        O  0.03952044  0.62713668  0.52965295    -0.79580
O186        O  0.89446331  0.46950348  0.47286226    -0.81270
C187        C  0.72714197  0.43977341  0.39158239     0.04620
C188        C  0.72478208  0.41421300  0.37122421    -0.11530
C189        C  0.75174584  0.40203252  0.35662706     0.02120
C190        C  0.78032801  0.41701493  0.36205055    -0.10060
C191        C  0.78347065  0.43824681  0.38605310     0.04610
C192        C  0.75680653  0.45038174  0.40008611    -0.09480
H193        H  0.70221674  0.40387531  0.36745337     0.10200
H194        H  0.80112800  0.41015719  0.34971526     0.07730
H195        H  0.75922447  0.46743840  0.41836282     0.07580
C196        C  0.08734022  0.63414438  0.22601901     0.04620
C197        C  0.11076993  0.65665265  0.22217576    -0.11530
C198        C  0.12689738  0.66798311  0.24808415     0.02120
C199        C  0.11936901  0.65739065  0.27782918    -0.10060
C200        C  0.09680991  0.63444079  0.28217418     0.04610
C201        C  0.08094474  0.62282587  0.25605078    -0.09480
H202        H  0.11660099  0.66514337  0.19921549     0.10200
H203        H  0.13153858  0.66695517  0.29764022     0.07730
H204        H  0.06411590  0.60434763  0.25891884     0.07580
C205        C  0.89280791  0.79867307  0.58878497     0.04620
C206        C  0.86945249  0.80210132  0.61151849    -0.11530
C207        C  0.85863042  0.77606030  0.62815063     0.02120
C208        C  0.87193647  0.74687703  0.62254051    -0.10060
C209        C  0.89462147  0.74303398  0.59980182     0.04610
C210        C  0.90500612  0.76891730  0.58291323    -0.09480
H211        H  0.85942272  0.82477114  0.61583630     0.10200
H212        H  0.86417845  0.72677682  0.63561139     0.07730
H213        H  0.92302566  0.76592858  0.56558281     0.07580
O214        O  0.01443775  0.93416759  0.47513749    -0.86860
C215        C  0.98083412  0.02238714  0.47185652     0.89170
Mg216      Mg  0.03278134  0.91547385  0.51663634     1.58150
O217        O  0.05336211  0.01189592  0.43661256    -0.86590
O218        O  0.03008660  0.94343464  0.42780021    -0.73920
C219        C  0.12995711  0.02317281  0.56940289     0.94220
O220        O  0.98018346  0.97196918  0.52852156    -0.73730
O221        O  0.11584120  0.99900509  0.57909405    -0.81240
Mg222      Mg  0.96963338  0.95501244  0.47859794     1.57960
C223        C  0.12544693  0.06976725  0.44809544     0.94150
O224        O  0.95612224  0.93696789  0.42924390    -0.79500
H225        H  0.07955624  0.99199227  0.40386379    -0.04840
C226        C  0.05548029  0.04567611  0.52361615     0.89080
O227        O  0.08258090  0.92575196  0.49944211    -0.74010
O228        O  0.98961741  0.99736499  0.46066675    -0.86770
O229        O  0.09777068  0.06939718  0.43726131    -0.79580
C230        C  0.00389801  0.06722469  0.39630331     0.94260
C231        C  0.95668972  0.94820366  0.40176514     0.94110
Mg232      Mg  0.11133749  0.01534135  0.49440197     1.57950
O233        O  0.12670289  0.03293743  0.54172277    -0.79510
O234        O  0.10173567  0.99849698  0.44491496    -0.73750
O235        O  0.99567917  0.03919628  0.40004164    -0.79590
O236        O  0.94818722  0.91090657  0.49955981    -0.81300
O237        O  0.09086241  0.92801878  0.57000563    -0.79620
C238        C  0.07817180  0.00077933  0.42728289     0.88550
O239        O  0.09199451  0.97386300  0.51272371    -0.86760
O240        O  0.06694304  0.03750197  0.49853226    -0.86870
O241        O  0.05433620  0.02750136  0.54703371    -0.73920
Mg242      Mg  0.01303049  0.99279163  0.41714226     1.57970
O243        O  0.02626462  0.07876650  0.41192596    -0.81300
H244        H  0.03608115  0.90203130  0.44962067    -0.05020
O245        O  0.02897077  0.95969670  0.53805490    -0.86570
H246        H  0.00190299  0.98053331  0.56953574    -0.04850
H247        H  0.12382269  0.94737136  0.49160713    -0.05020
C248        C  0.00379196  0.97095394  0.54647057     0.88530
C249        C  0.02684323  0.92535555  0.45086329     0.89110
C250        C  0.10060622  0.94906638  0.50111790     0.89160
H251        H  0.04571933  0.06873667  0.52555000    -0.05000
O252        O  0.99859536  0.04603967  0.47320025    -0.74030
Mg253      Mg  0.07172247  0.97757010  0.55757442     1.58000
H254        H  0.95759614  0.02401749  0.48131932    -0.05020
C255        C  0.95742895  0.89648870  0.52375343     0.94150
O256        O  0.05267085  0.89489485  0.55949059    -0.81260
C257        C  0.07908033  0.90082011  0.57109416     0.94210
O258        O  0.97148527  0.97271851  0.39525010    -0.81240
Mg259      Mg  0.04843608  0.05709060  0.45614442     1.58180
O260        O  0.98482623  0.89989656  0.53450202    -0.79580
O261        O  0.13239050  0.05816206  0.47425654    -0.81270
C262        C  0.13517903  0.72862897  0.58435660     0.04620
C263        C  0.15555155  0.72304953  0.60945129    -0.11530
C264        C  0.16678865  0.74808664  0.62708429     0.02120
C265        C  0.15845710  0.77851549  0.61920798    -0.10060
C266        C  0.13826851  0.78430286  0.59460778     0.04610
C267        C  0.12704463  0.75949367  0.57692958    -0.09480
H268        H  0.16111270  0.69946655  0.61634463     0.10200
H269        H  0.16627842  0.79767137  0.63348899     0.07730
H270        H  0.11069793  0.76417352  0.55830148     0.07580
C271        C  0.29677158  0.08639466  0.38690980     0.04620
C272        C  0.29959131  0.10873136  0.36311330    -0.11530
C273        C  0.27300473  0.12438076  0.35188385     0.02120
C274        C  0.24397974  0.11813987  0.36534537    -0.10060
C275        C  0.24096657  0.09585639  0.38861502     0.04610
C276        C  0.26724424  0.07964976  0.39914360    -0.09480
H277        H  0.32233912  0.11399572  0.35365084     0.10200
H278        H  0.22351037  0.13100157  0.35799661     0.07730
H279        H  0.26492526  0.06290602  0.41784050     0.07580
C280        C  0.93969761  0.88782526  0.23151852     0.04620
C281        C  0.91966563  0.86227045  0.22794281    -0.11530
C282        C  0.90499297  0.84912592  0.25412543     0.02120
C283        C  0.91037853  0.86186509  0.28354135    -0.10060
C284        C  0.93034582  0.88701895  0.28734655     0.04610
C285        C  0.94548411  0.89944888  0.26134810    -0.09480
H286        H  0.91455473  0.85357344  0.20494860     0.10200
H287        H  0.89756314  0.85322278  0.30342906     0.07730
H288        H  0.96079781  0.91922471  0.26410211     0.07580
O289        O  0.54595311  0.54738922  0.97335299    -0.86860
C290        C  0.53589014  0.47185412  0.91912767     0.89170
Mg291      Mg  0.58385654  0.54985844  0.00559502     1.58150
O292        O  0.48222788  0.47443134  0.98093205    -0.86590
O293        O  0.49473762  0.54686087  0.97431475    -0.73920
C294        C  0.58881523  0.41111249  0.07242755     0.94220
O295        O  0.59847723  0.50302130  0.94394463    -0.73730
O296        O  0.60687838  0.43431224  0.06938913    -0.81240
Mg297      Mg  0.55855534  0.53438223  0.92687594     1.57960
C298        C  0.46714625  0.39583888  0.03436661     0.94150
O299        O  0.52094087  0.56665613  0.90378603    -0.79500
H300        H  0.44936621  0.49734504  0.00447755    -0.04840
C301        C  0.55828673  0.42085008  0.99247979     0.89080
O302        O  0.55229529  0.53434869  0.04567963    -0.74010
O303        O  0.52737602  0.49626813  0.93154212    -0.86770
O304        O  0.46414349  0.40421011  0.00601081    -0.79580
C305        C  0.45670634  0.44005207  0.90856230     0.94260
C306        C  0.49322068  0.56224049  0.89391567     0.94110
Mg307      Mg  0.52262202  0.44564027  0.04730404     1.57950
O308        O  0.56040354  0.41272024  0.06427516    -0.79510
O309        O  0.48193140  0.47670795  0.03182791    -0.73750
O310        O  0.46498693  0.46834488  0.90933934    -0.79590
O311        O  0.59503838  0.57231946  0.92195429    -0.81300
O312        O  0.62348403  0.50784498  0.06440050    -0.79620
C313        C  0.47004905  0.48302929  0.00549683     0.88550
O314        O  0.55439498  0.48340386  0.04492585    -0.86760
O315        O  0.53358873  0.43311239  0.00069440    -0.86870
O316        O  0.58458130  0.43186203  0.00015080    -0.73920
Mg317      Mg  0.48022571  0.50625072  0.94286616     1.57970
O318        O  0.45840094  0.42237394  0.93224375    -0.81300
H319        H  0.52102148  0.57932547  0.99605611    -0.05020
O320        O  0.59645950  0.50317016  0.99471085    -0.86570
H321        H  0.62969689  0.48058240  0.97141133    -0.04850
H322        H  0.53123767  0.50678777  0.07763789    -0.05020
C323        C  0.60925571  0.49523269  0.97030240     0.88530
C324        C  0.52080079  0.55893246  0.98151939     0.89110
C325        C  0.54576192  0.50791986  0.05719510     0.89160
H326        H  0.55747723  0.40071486  0.97761054    -0.05000
O327        O  0.52797824  0.44545768  0.92971601    -0.74030
Mg328      Mg  0.60126744  0.47118339  0.03192810     1.58000
H329        H  0.55099853  0.47298138  0.89911221    -0.05020
C330        C  0.61866355  0.57486876  0.93968466     0.94150
O331        O  0.62268259  0.55374278  0.04064792    -0.81260
C332        C  0.63202615  0.53616936  0.06255629     0.94210
O333        O  0.47660659  0.53981852  0.90338699    -0.81240
Mg334      Mg  0.49612464  0.42790302  0.96898247     1.58180
O335        O  0.61743820  0.56662254  0.96805278    -0.79580
O336        O  0.48871310  0.40664284  0.05129088    -0.81270
C337        C  0.43665086  0.39332644  0.73041999     0.04620
C338        C  0.44346977  0.40497120  0.76010804    -0.11530
C339        C  0.42885914  0.39278016  0.78668256     0.02120
C340        C  0.40763775  0.36845433  0.78327472    -0.10060
C341        C  0.39972963  0.35729673  0.75390055     0.04610
C342        C  0.41404403  0.36988308  0.72734793    -0.09480
H343        H  0.45973602  0.42401984  0.76235521     0.10200
H344        H  0.39666770  0.35838970  0.80359102     0.07730
H345        H  0.40789013  0.36126857  0.70457278     0.07580
C346        C  0.63150506  0.23220359  0.08772864     0.04620
C347        C  0.65265187  0.22631636  0.11216916    -0.11530
C348        C  0.66615411  0.25122690  0.12836321     0.02120
C349        C  0.65785835  0.28175762  0.12090696    -0.10060
C350        C  0.63688170  0.28797455  0.09692476     0.04610
C351        C  0.62498041  0.26322182  0.07955320    -0.09480
H352        H  0.65764277  0.20271156  0.11938113     0.10200
H353        H  0.66679030  0.30065392  0.13485660     0.07730
H354        H  0.60937871  0.26817641  0.06038310     0.07580
C355        C  0.79748007  0.58626775  0.89020125     0.04620
C356        C  0.76704386  0.58046564  0.90087234    -0.11530
C357        C  0.74155678  0.59733057  0.88925144     0.02120
C358        C  0.74658375  0.61945255  0.86603771    -0.10060
C359        C  0.77648360  0.62506353  0.85439899     0.04610
C360        C  0.80210942  0.60862186  0.86668376    -0.09480
H361        H  0.76331818  0.56314310  0.91878634     0.10200
H362        H  0.72719153  0.63329121  0.85762686     0.07730
H363        H  0.82542368  0.61375513  0.85861744     0.07580
O364        O  0.97415671  0.51207242  0.09140050    -0.86860
C365        C  0.96985422  0.54419204  0.00294090     0.89170
Mg366      Mg  0.01639289  0.49519175  0.11027320     1.58150
O367        O  0.93473099  0.47180385  0.01436019    -0.86590
O368        O  0.92669587  0.49600203  0.08267469    -0.73920
C369        C  0.06864389  0.39522175  0.00523581     0.94220
O370        O  0.02694277  0.54648476  0.05266669    -0.73730
O371        O  0.08006584  0.41103796  0.02750048    -0.81240
Mg372      Mg  0.97676985  0.55653875  0.07004194     1.57960
C373        C  0.94903323  0.39857823  0.95755750     0.94150
O374        O  0.92716799  0.56922903  0.08842368    -0.79500
H375        H  0.90241161  0.44602590  0.03554930    -0.04840
C376        C  0.02270822  0.46968514  0.98087514     0.89080
O377        O  0.00019237  0.44502421  0.10221221    -0.74010
O378        O  0.95880746  0.53574227  0.02814893    -0.86770
O379        O  0.93761955  0.42602886  0.95587399    -0.79580
C380        C  0.89482283  0.52057545  0.95814020     0.94260
C381        C  0.89958365  0.56851211  0.07732964     0.94110
Mg382      Mg  0.99379123  0.41515461  0.01408925     1.57950
O383        O  0.04050342  0.39857142  0.99685713    -0.79510
O384        O  0.94431793  0.42480322  0.03085842    -0.73750
O385        O  0.89807833  0.52851460  0.98628358    -0.79590
O386        O  0.99767561  0.57899338  0.11378972    -0.81300
O387        O  0.07126279  0.43792645  0.09933350    -0.79620
C388        C  0.92593381  0.44749196  0.02677976     0.88550
O389        O  0.01301597  0.43552696  0.05411510    -0.86760
O390        O  0.99763276  0.45839692  0.98961871    -0.86870
O391        O  0.04639182  0.47138868  0.99870206    -0.73920
Mg392      Mg  0.91529589  0.51225610  0.03310552     1.57970
O393        O  0.91048282  0.49797609  0.94696081    -0.81300
H394        H  0.94895775  0.49041263  0.12388511    -0.05020
O395        O  0.03785726  0.49830565  0.06589605    -0.86570
H396        H  0.06845638  0.52552391  0.04384244    -0.04850
H397        H  0.99356683  0.40333474  0.08143369    -0.05020
C398        C  0.04551220  0.52334228  0.05387797     0.88530
C399        C  0.94997459  0.49949006  0.10048982     0.89110
C400        C  0.00219425  0.42679044  0.07922343     0.89160
H401        H  0.02439331  0.47885149  0.95755668    -0.05000
O402        O  0.97130628  0.52609081  0.97964986    -0.74030
Mg403      Mg  0.05807192  0.45552151  0.04887627     1.58000
H404        H  0.97906900  0.56743016  0.00081589    -0.05020
C405        C  0.02237539  0.57037101  0.12781753     0.94150
O406        O  0.05990271  0.47709091  0.13070455    -0.81260
C407        C  0.07174941  0.45057783  0.12619184     0.94210
O408        O  0.89313455  0.55399645  0.05269949    -0.81240
Mg409      Mg  0.95495715  0.47604650  0.96919184     1.58180
O410        O  0.03371641  0.54334037  0.12424543    -0.79580
O411        O  0.97328386  0.39258360  0.97320966    -0.81270
C412        C  0.72900953  0.58606895  0.14030614     0.04620
C413        C  0.72622746  0.60673114  0.16533295    -0.11530
C414        C  0.75286957  0.62122261  0.17753336     0.02120
C415        C  0.78198298  0.61533627  0.16409959    -0.10060
C416        C  0.78498117  0.59497686  0.13922071     0.04610
C417        C  0.75846983  0.57999080  0.12764474    -0.09480
H418        H  0.70345466  0.61181543  0.17485945     0.10200
H419        H  0.80231836  0.62787388  0.17207279     0.07730
H420        H  0.76056164  0.56455144  0.10794569     0.07580
C421        C  0.08371538  0.38732250  0.29883016     0.04620
C422        C  0.10757777  0.36514369  0.30239942    -0.11530
C423        C  0.12385192  0.35438480  0.27631719     0.02120
C424        C  0.11667276  0.36598819  0.24682563    -0.10060
C425        C  0.09354619  0.38850050  0.24292358     0.04610
C426        C  0.07666272  0.39868491  0.26897254    -0.09480
H427        H  0.11390901  0.35687182  0.32533426     0.10200
H428        H  0.13039527  0.35862977  0.22704836     0.07730
H429        H  0.05901253  0.41651063  0.26621436     0.07580
C430        C  0.88686503  0.22765026  0.94126236     0.04620
C431        C  0.86400019  0.22412305  0.91810671    -0.11530
C432        C  0.85325062  0.25010969  0.90149762     0.02120
C433        C  0.86508494  0.27958273  0.90803670    -0.10060
C434        C  0.88781771  0.28351225  0.93083844     0.04610
C435        C  0.89818275  0.25753074  0.94782787    -0.09480
H436        H  0.85559185  0.20120992  0.91214506     0.10200
H437        H  0.85776672  0.29926198  0.89402988     0.07730
H438        H  0.91637700  0.26034521  0.96502152     0.07580
O439        O  0.47090021  0.04737937  0.04406088    -0.86860
C440        C  0.41671980  0.03470508  0.96874248     0.89170
Mg441      Mg  0.50241170  0.08572027  0.04561379     1.58150
O442        O  0.47977678  0.98242842  0.97240060    -0.86590
O443        O  0.47380196  0.99636624  0.04457489    -0.73920
C444        C  0.56940293  0.08905393  0.90668176     0.94220
O445        O  0.44065359  0.09830993  0.99794071    -0.73730
O446        O  0.56649730  0.10691295  0.92999149    -0.81240
Mg447      Mg  0.42398761  0.05903189  0.03006138     1.57960
C448        C  0.53276341  0.96664816  0.89351462     0.94150
O449        O  0.40092388  0.02245307  0.06267485    -0.79500
H450        H  0.50431296  0.95040859  0.99568006    -0.04840
C451        C  0.48958079  0.05749216  0.91728971     0.89080
O452        O  0.54334222  0.05459946  0.03070873    -0.74010
O453        O  0.42953176  0.02698701  0.99329745    -0.86770
O454        O  0.50457199  0.96294191  0.90233759    -0.79580
C455        C  0.40709127  0.95539411  0.93947005     0.94260
C456        C  0.39309078  0.99391476  0.06093996     0.94110
Mg457      Mg  0.54537266  0.02314083  0.94221222     1.57950
O458        O  0.56149814  0.06062629  0.90813672    -0.79510
O459        O  0.53088332  0.98287199  0.97412812    -0.73750
O460        O  0.40824740  0.96419700  0.96756348    -0.79590
O461        O  0.41795064  0.09598303  0.06680213    -0.81300
O462        O  0.56184399  0.12505227  0.00353207    -0.79620
C463        C  0.50476216  0.97078756  0.98097056     0.88550
O464        O  0.54279724  0.05536700  0.97971000    -0.86760
O465        O  0.49828152  0.03304478  0.92974629    -0.86870
O466        O  0.49720303  0.08390641  0.92787603    -0.73920
Mg467      Mg  0.44211502  0.98040739  0.00475733     1.57970
O468        O  0.43069926  0.95648886  0.92162692    -0.81300
H469        H  0.49472854  0.02391113  0.07646082    -0.05020
O470        O  0.49159323  0.09709182  0.99868706    -0.86570
H471        H  0.46776167  0.12938023  0.97509971    -0.04850
H472        H  0.57573168  0.03309480  0.00401171    -0.05020
C473        C  0.46693324  0.10930666  0.99020560     0.88530
C474        C  0.48001282  0.02280226  0.05613408     0.89110
C475        C  0.55504397  0.04742009  0.00456045     0.89160
H476        H  0.47442654  0.05636373  0.89728834    -0.05000
O477        O  0.42728376  0.02643135  0.94252071    -0.74030
Mg478      Mg  0.52912048  0.10168215  0.96690428     1.58000
H479        H  0.39636822  0.04948649  0.96958382    -0.05020
C480        C  0.43553835  0.11955061  0.06970177     0.94150
O481        O  0.53586430  0.12551365  0.04835733    -0.81260
C482        C  0.55794424  0.13494708  0.03118450     0.94210
O483        O  0.40349450  0.97637977  0.03968601    -0.81240
Mg484      Mg  0.46704459  0.99489396  0.92563530     1.58180
O485        O  0.46410505  0.11874158  0.06189794    -0.79580
O486        O  0.54933275  0.98870273  0.90381373    -0.81270
C487        C  0.58692911  0.13507260  0.72787187     0.04620
C488        C  0.60983674  0.15812055  0.72388649    -0.11530
C489        C  0.62530413  0.17043776  0.74973270     0.02120
C490        C  0.61779854  0.16002536  0.77954693    -0.10060
C491        C  0.59534716  0.13700123  0.78394353     0.04610
C492        C  0.57987278  0.12464174  0.75806607    -0.09480
H493        H  0.61606764  0.16598472  0.70080846     0.10200
H494        H  0.63046368  0.16901839  0.79934356     0.07730
H495        H  0.56293572  0.10632270  0.76139849     0.07580
C496        C  0.39149668  0.29790383  0.08684488     0.05020
C497        C  0.36831257  0.30227633  0.10938852    -0.11530
C498        C  0.35437861  0.27647713  0.12361699     0.02120
C499        C  0.36370772  0.24647967  0.11544925    -0.10060
C500        C  0.38748916  0.24195861  0.09383904     0.04610
C501        C  0.40120960  0.26771747  0.07933955    -0.09480
H502        H  0.36185609  0.32553023  0.11646360     0.10200
H503        H  0.35364574  0.22663001  0.12728605     0.07730
H504        H  0.42006241  0.26432880  0.06298082     0.07580
C505        C  0.22861159  0.93680369  0.89020834     0.04620
C506        C  0.22590544  0.91775349  0.86394808    -0.11530
C507        C  0.25270110  0.90458225  0.85041155     0.02120
C508        C  0.28205121  0.91162864  0.86280684    -0.10060
C509        C  0.28506880  0.92988448  0.88945030     0.04610
C510        C  0.25806284  0.94217517  0.90316495    -0.09480
H511        H  0.20305297  0.91247501  0.85473955     0.10200
H512        H  0.30268236  0.90186840  0.85220631     0.07730
H513        H  0.25971335  0.95538549  0.92444072     0.07580
O514        O  0.59240374  0.55159464  0.51622365    -0.86860
C515        C  0.50432240  0.55578881  0.48212549     0.89170
Mg516      Mg  0.61034654  0.50996998  0.53522790     1.58150
O517        O  0.51510831  0.59085950  0.55418018    -0.86590
O518        O  0.58386212  0.59919609  0.53130360    -0.73920
C519        C  0.50089940  0.45852162  0.63219211     0.94220
O520        O  0.55381234  0.49872346  0.48252265    -0.73730
O521        O  0.52532666  0.44915309  0.61824540    -0.81240
Mg522      Mg  0.57178680  0.54833125  0.47150359     1.57960
C523        C  0.45684662  0.58163736  0.62559997     0.94150
O524        O  0.59090397  0.59776533  0.45762408    -0.79500
H525        H  0.53552265  0.62323733  0.58034802    -0.04840
C526        C  0.47944591  0.50431156  0.55687126     0.89080
O527        O  0.59921440  0.52790902  0.58444902    -0.74010
O528        O  0.52946088  0.56694397  0.49084249    -0.86770
O529        O  0.45818888  0.59224235  0.59795695    -0.79580
C530        C  0.46006219  0.63148449  0.50408261     0.94260
C531        C  0.57979308  0.62536041  0.45806994     0.94110
Mg532      Mg  0.50911197  0.53337500  0.61268913     1.57950
O533        O  0.49031838  0.48589076  0.62829416    -0.79510
O534        O  0.52719093  0.58258561  0.60278942    -0.73750
O535        O  0.48831247  0.62787640  0.49634523    -0.79590
O536        O  0.61556932  0.52618339  0.45073578    -0.81300
O537        O  0.59636137  0.45826548  0.59394424    -0.79620
C538        C  0.52605995  0.60005034  0.57902370     0.88550
O539        O  0.55085729  0.51473962  0.59404324    -0.86760
O540        O  0.48800982  0.52935642  0.56809761    -0.86870
O541        O  0.49726831  0.48057832  0.55612897    -0.73920
Mg542      Mg  0.53458396  0.61036515  0.51407838     1.57970
O543        O  0.44845448  0.61620528  0.52664040    -0.81300
H544        H  0.62499694  0.57678535  0.53758992    -0.05020
O545        O  0.56566797  0.48905331  0.53127752    -0.86570
H546        H  0.54427035  0.45791563  0.50435776    -0.04850
H547        H  0.57734537  0.53655246  0.62529012    -0.05020
C548        C  0.55434251  0.48080801  0.50616455     0.88530
C549        C  0.60161497  0.57582968  0.52835250     0.89110
C550        C  0.57572451  0.52656355  0.60237753     0.89160
H551        H  0.45636164  0.50267238  0.54701856    -0.05000
O552        O  0.48052699  0.55451843  0.49978854    -0.74030
Mg553      Mg  0.54711081  0.46996537  0.57403019     1.58000
H554        H  0.50273648  0.54621328  0.45903475    -0.05020
C555        C  0.62972379  0.50185023  0.46014633     0.94150
O556        O  0.63053647  0.46707451  0.55615498    -0.81260
C557        C  0.62397022  0.45727555  0.58307972     0.94210
O558        O  0.55521106  0.63197729  0.47277371    -0.81240
Mg559      Mg  0.46951499  0.57209743  0.54922320     1.58180
O560        O  0.62627891  0.49145314  0.48765268    -0.79580
O561        O  0.46590132  0.55443290  0.63248026    -0.81270
C562        C  0.63885207  0.79671098  0.44193226     0.04620
C563        C  0.66195182  0.80093851  0.41916450    -0.11530
C564        C  0.67364499  0.77535003  0.40284882     0.02120
C565        C  0.66275997  0.74548914  0.40949652    -0.10060
C566        C  0.63968873  0.74090200  0.43179988     0.04610
C567        C  0.62806856  0.76653285  0.44828981    -0.09480
H568        H  0.66983609  0.82409394  0.41325115     0.10200
H569        H  0.67097014  0.72599451  0.39588219     0.07730
H570        H  0.60945589  0.76315330  0.46492231     0.07580
C571        C  0.44047751  0.63727521  0.79546695     0.04620
C572        C  0.41580779  0.65882698  0.79844923    -0.11530
C573        C  0.40436779  0.67475362  0.77199992     0.02120
C574        C  0.41938441  0.67012019  0.74339105    -0.10060
C575        C  0.44071762  0.64615861  0.73972292     0.04610
C576        C  0.45221117  0.63067178  0.76579572    -0.09480
H577        H  0.40453600  0.66153452  0.82072458     0.10200
H578        H  0.41186489  0.68263506  0.72285125     0.07730
H579        H  0.46912668  0.61222650  0.76269698     0.07580
C580        C  0.79740965  0.44066602  0.63664771     0.04620
C581        C  0.80225653  0.41780976  0.65967336    -0.11530
C582        C  0.77660364  0.40241594  0.67295808     0.02120
C583        C  0.74641208  0.40956605  0.66307152    -0.10060
C584        C  0.74131146  0.43188263  0.64015341     0.04610
C585        C  0.76673923  0.44778552  0.62738435    -0.09480
H586        H  0.82569285  0.41142028  0.66651842     0.10200
H587        H  0.72676044  0.39712073  0.67281659     0.07730
H588        H  0.76271253  0.46498342  0.60938364     0.07580
O589        O  0.47250044  0.97884208  0.48035199    -0.86860
C590        C  0.41742198  0.99039481  0.55475857     0.89170
Mg591      Mg  0.50454786  0.94072459  0.47948434     1.58150
O592        O  0.47956404  0.04346782  0.55192385    -0.86590
O593        O  0.47441583  0.02986846  0.47977203    -0.73920
C594        C  0.57082310  0.93871426  0.61885299     0.94220
O595        O  0.44221511  0.92777122  0.52548938    -0.73730
O596        O  0.56767162  0.92055159  0.59581471    -0.81240
Mg597      Mg  0.42556971  0.96693592  0.49287552     1.57960
C598        C  0.53185266  0.06130748  0.63040540     0.94150
O599        O  0.40303213  0.00386355  0.45971404    -0.79500
H600        H  0.50347486  0.07585423  0.52870496    -0.04840
C601        C  0.49062263  0.96925472  0.60789060     0.89080
O602        O  0.54472643  0.97246186  0.49461638    -0.74010
O603        O  0.42986038  0.99865126  0.53020782    -0.86770
O604        O  0.50340131  0.06335216  0.62182580    -0.79580
C605        C  0.40629081  0.06965229  0.58443045     0.94260
C606        C  0.39438643  0.03219459  0.46199494     0.94110
Mg607      Mg  0.54596475  0.00424602  0.58285887     1.57950
O608        O  0.56277665  0.96712916  0.61706010    -0.79510
O609        O  0.53068867  0.04401345  0.55060541    -0.73750
O610        O  0.40754270  0.06110536  0.55626370    -0.79590
O611        O  0.42114989  0.93028125  0.45535116    -0.81300
O612        O  0.56322547  0.90184175  0.52279785    -0.79620
C613        C  0.50432295  0.05555587  0.54351430     0.88550
O614        O  0.54390108  0.97162528  0.54565734    -0.86760
O615        O  0.49900170  0.99355442  0.59506762    -0.86870
O616        O  0.49827337  0.94277905  0.59749916    -0.73920
Mg617      Mg  0.44205710  0.04532315  0.51933114     1.57970
O618        O  0.42978509  0.06836002  0.60240810    -0.81300
H619        H  0.49631459  0.00257752  0.44825015    -0.05020
O620        O  0.49317469  0.92963914  0.52640351    -0.86570
H621        H  0.46916349  0.89729363  0.54955102    -0.04850
H622        H  0.57664879  0.99420836  0.52159442    -0.05020
C623        C  0.46845738  0.91724386  0.53427242     0.88530
C624        C  0.48133572  0.00351007  0.46837028     0.89110
C625        C  0.55618475  0.97966678  0.52087777     0.89160
H626        H  0.47559769  0.97057327  0.62795318    -0.05000
O627        O  0.42795970  0.99854779  0.58105604    -0.74030
Mg628      Mg  0.53036491  0.92524624  0.55872051     1.58000
H629        H  0.39745458  0.97519691  0.55384326    -0.05020
C630        C  0.43845062  0.90626830  0.45480347     0.94150
O631        O  0.53955312  0.90186698  0.47684892    -0.81260
C632        C  0.56142555  0.89285097  0.49464464     0.94210
O633        O  0.40374863  0.04916701  0.48413400    -0.81240
Mg634      Mg  0.46683982  0.03078936  0.59854324     1.58180
O635        O  0.46666456  0.90674046  0.46385644    -0.79580
O636        O  0.54949097  0.03957856  0.62094975    -0.81270
C637        C  0.39217993  0.72838874  0.43843789     0.04620
C638        C  0.36915811  0.72379527  0.41564572    -0.11530
C639        C  0.35615424  0.74948253  0.40008521     0.02120
C640        C  0.36556323  0.77958546  0.40774011    -0.10060
C641        C  0.38879764  0.78456078  0.42988558     0.04610
C642        C  0.40172706  0.75883302  0.44534359    -0.09480
H643        H  0.36249211  0.70049045  0.40905861     0.10200
H644        H  0.35517285  0.79917616  0.39569496     0.07730
H645        H  0.42008250  0.76237338  0.46220788     0.07580
C646        C  0.22746611  0.08920306  0.63280288     0.04620
C647        C  0.25720738  0.08170399  0.62141262    -0.11530
C648        C  0.28380582  0.09760737  0.63190645     0.02120
C649        C  0.28009207  0.12094207  0.65412163    -0.10060
C650        C  0.25052363  0.12984356  0.66430904     0.04610
C651        C  0.22414388  0.11372444  0.65399909    -0.09480
H652        H  0.25931066  0.06418527  0.60357689     0.10200
H653        H  0.30027020  0.13285149  0.66330696     0.07730
H654        H  0.20120240  0.12061635  0.66187079     0.07580
C655        C  0.58735728  0.89077529  0.79712214     0.04620
C656        C  0.61092760  0.86860472  0.80195010    -0.11530
C657        C  0.62708588  0.85630889  0.77649123     0.02120
C658        C  0.62016362  0.86670342  0.74645063    -0.10060
C659        C  0.59693813  0.88901753  0.74131057     0.04610
C660        C  0.58016604  0.90048876  0.76681947    -0.09480
H661        H  0.61737966  0.86181469  0.82532783     0.10200
H662        H  0.63399148  0.85830952  0.72718492     0.07730
H663        H  0.56230499  0.91797028  0.76332360     0.07580
C664        C  0.26102210  0.23529271  0.74488468     0.04620
C665        C  0.23900159  0.24382030  0.76724653    -0.11530
C666        C  0.24652289  0.26443611  0.79152937     0.02120
C667        C  0.27555813  0.27973212  0.78999633    -0.10060
C668        C  0.29613430  0.27423053  0.76526625     0.04610
C669        C  0.28947733  0.25105260  0.74369502    -0.09480
H670        H  0.21603046  0.23383344  0.76546250     0.10200
H671        H  0.28272503  0.29576602  0.80780969     0.07730
H672        H  0.30635621  0.24560581  0.72583888     0.07580
C673        C  0.25731670  0.18645737  0.67210456     0.25080
C674        C  0.24810450  0.15753548  0.68410393    -0.23020
C675        C  0.24109665  0.15468716  0.71573223     0.19990
C676        C  0.24445058  0.18025473  0.73540276     0.25030
C677        C  0.25465669  0.20909406  0.72357140    -0.22970
C678        C  0.26042491  0.21205914  0.69160877     0.19930
F679        F  0.26952088  0.23964594  0.67931354    -0.12930
F680        F  0.26433015  0.18955666  0.64153084    -0.15290
F681        F  0.23961574  0.17629011  0.76629626    -0.15290
F682        F  0.23296918  0.12671492  0.72785366    -0.12930
C683        C  0.58446508  0.94611805  0.67514607     0.25080
C684        C  0.58156893  0.92625204  0.64930612    -0.23020
C685        C  0.58523320  0.89401879  0.65398282     0.19990
C686        C  0.59006294  0.88195414  0.68378611     0.25030
C687        C  0.59187374  0.90177958  0.70960817    -0.22970
C688        C  0.58969748  0.93402379  0.70481573     0.19930
F689        F  0.59291670  0.95404737  0.72886718    -0.12930
F690        F  0.58161255  0.97738736  0.67204284    -0.15290
F691        F  0.59173009  0.85067338  0.68747845    -0.15290
F692        F  0.58295590  0.87384793  0.62996250    -0.12930
C693        C  0.35437964  0.05340254  0.60245448     0.25080
C694        C  0.37568983  0.07747450  0.59712959    -0.23020
C695        C  0.36691343  0.10819700  0.60269473     0.19990
C696        C  0.33681426  0.11488134  0.61318699     0.25030
C697        C  0.31539517  0.09067302  0.61939824    -0.22970
C698        C  0.32472674  0.05980646  0.61398973     0.19930
F699        F  0.30555412  0.03565332  0.62057947    -0.12930
F700        F  0.36250802  0.02347113  0.59678182    -0.15290
F701        F  0.32845034  0.14511678  0.61634496    -0.15290
F702        F  0.38718344  0.13171295  0.59719330    -0.12930
C703        C  0.41872303  0.86684878  0.41706608     0.25080
C704        C  0.42465373  0.87606227  0.44759619    -0.23020
C705        C  0.41822636  0.85565709  0.47221233     0.19990
C706        C  0.40589613  0.82631276  0.46651389     0.25030
C707        C  0.40051670  0.81643969  0.43590375    -0.22970
C708        C  0.40707129  0.83708142  0.41116036     0.19930
F709        F  0.40332065  0.82811120  0.38122757    -0.12930
F710        F  0.42507701  0.88627688  0.39303224    -0.15290
F711        F  0.39880827  0.80775491  0.49104064    -0.15290
F712        F  0.42378141  0.86430261  0.50197074    -0.12930
C713        C  0.60916296  0.84652073  0.43704873     0.25080
C714        C  0.62286742  0.82376173  0.45614267    -0.23020
C715        C  0.61860485  0.82556924  0.48846699     0.19990
C716        C  0.59989222  0.84895204  0.50132775     0.25030
C717        C  0.58477117  0.87073621  0.48200379    -0.22970
C718        C  0.59036643  0.86970739  0.44979192     0.19930
F719        F  0.57708637  0.89082946  0.43037062    -0.12930
F720        F  0.61240956  0.84527071  0.40573701    -0.15290
F721        F  0.59529445  0.84920450  0.53248991    -0.15290
F722        F  0.63204674  0.80424671  0.50754245    -0.12930
C723        C  0.42402004  0.60652521  0.70193616     0.25080
C724        C  0.44346402  0.63172816  0.70900562    -0.23020
C725        C  0.46412617  0.64307800  0.68657285     0.19990
C726        C  0.46645336  0.62824947  0.65779791     0.25030
C727        C  0.44814708  0.60194622  0.65138993    -0.22970
C728        C  0.42655364  0.59154935  0.67342956     0.19930
F729        F  0.40874232  0.56620201  0.66769607    -0.12930
F730        F  0.40303574  0.59603487  0.72305533    -0.15290
F731        F  0.48828363  0.63800007  0.63720422    -0.15290
F732        F  0.48283114  0.66757746  0.69303442    -0.12930
C733        C  0.45756070  0.67852630  0.46981490     0.25080
C734        C  0.44166840  0.65522101  0.48661768    -0.23020
C735        C  0.40883564  0.65522462  0.48601840     0.19990
C736        C  0.39245090  0.67834174  0.46948871     0.25030
C737        C  0.40862011  0.70187205  0.45347034    -0.22970
C738        C  0.44129211  0.70122558  0.45335470     0.19930
F739        F  0.45770546  0.72285513  0.43724250    -0.12930
F740        F  0.48914083  0.68011509  0.46985982    -0.15290
F741        F  0.36085241  0.67829064  0.46993067    -0.15290
F742        F  0.39260011  0.63289241  0.50125913    -0.12930
C743        C  0.59300634  0.70682326  0.43054864     0.25080
C744        C  0.62518680  0.70995562  0.43499738    -0.23020
C745        C  0.64320798  0.68336831  0.44154970     0.19990
C746        C  0.62880941  0.65450376  0.44608257     0.25030
C747        C  0.59624950  0.65192912  0.44389148    -0.22970
C748        C  0.57872424  0.67811695  0.43469478     0.19930
F749        F  0.54734084  0.67626132  0.43124408    -0.12930
F750        F  0.57525179  0.73174938  0.42257401    -0.15290
F751        F  0.64637252  0.62981219  0.45507256    -0.15290
F752        F  0.67449379  0.68572197  0.44534370    -0.12930
C753        C  0.66684478  0.47269548  0.61743875     0.25080
C754        C  0.65030022  0.44869408  0.60289517    -0.23020
C755        C  0.66295034  0.41871245  0.60209129     0.19990
C756        C  0.69228009  0.41295876  0.61514686     0.25030
C757        C  0.70943502  0.43735235  0.62852011    -0.22970
C758        C  0.69625885  0.46710519  0.63006603     0.19930
F759        F  0.71217823  0.49085714  0.64324704    -0.12930
F760        F  0.65521528  0.50203627  0.61775473    -0.15290
F761        F  0.70470964  0.38402252  0.61317316    -0.15290
F762        F  0.64766746  0.39553161  0.58727754    -0.12930
C763        C  0.52620478  0.09826818  0.67533339     0.25080
C764        C  0.54505630  0.08398355  0.65276468    -0.23020
C765        C  0.57743506  0.08933625  0.65350596     0.19990
C766        C  0.59080707  0.10701159  0.67715354     0.25030
C767        C  0.57218380  0.11984048  0.70066250    -0.22970
C768        C  0.53967130  0.11590365  0.69911548     0.19930
F769        F  0.52096148  0.12867746  0.72102591    -0.12930
F770        F  0.49492263  0.09382094  0.67544410    -0.15290
F771        F  0.62226009  0.11002937  0.67801119    -0.15290
F772        F  0.59641516  0.07684633  0.63165096    -0.12930
C773        C  0.35359679  0.97127073  0.92607613     0.25080
C774        C  0.37637835  0.94785701  0.92672555    -0.23020
C775        C  0.36916800  0.91821670  0.91575306     0.19990
C776        C  0.33920048  0.91194761  0.90455140     0.25030
C777        C  0.31642637  0.93573290  0.90297023    -0.22970
C778        C  0.32416291  0.96550894  0.91380907     0.19930
F779        F  0.30364350  0.98945383  0.91166799    -0.12930
F780        F  0.36018449  0.00018279  0.93663406    -0.15290
F781        F  0.33232923  0.88243496  0.89604002    -0.15290
F782        F  0.39080383  0.89521268  0.91671081    -0.12930
C783        C  0.57415504  0.95527507  0.85405615     0.25080
C784        C  0.54702615  0.94568706  0.86997254    -0.23020
C785        C  0.53389300  0.91665623  0.86238509     0.19990
C786        C  0.54742831  0.89803384  0.83926221     0.25030
C787        C  0.57412406  0.90818357  0.82343237    -0.22970
C788        C  0.58738473  0.93675307  0.83113290     0.19930
F789        F  0.61295838  0.94711013  0.81576242    -0.12930
F790        F  0.58757504  0.98317644  0.85979135    -0.15290
F791        F  0.53418688  0.87044371  0.83189599    -0.15290
F792        F  0.50803438  0.90628812  0.87720993    -0.12930
C793        C  0.58868629  0.08171410  0.85212354     0.25080
C794        C  0.57968117  0.10182676  0.87630775    -0.23020
C795        C  0.57665415  0.13380630  0.86979218     0.19990
C796        C  0.58162001  0.14514541  0.83975062     0.25030
C797        C  0.58962923  0.12484981  0.81558352    -0.22970
C798        C  0.59352072  0.09312755  0.82210084     0.19930
F799        F  0.60242342  0.07319574  0.79942187    -0.12930
F800        F  0.59258279  0.05085439  0.85737310    -0.15290
F801        F  0.57752147  0.17590491  0.83399656    -0.15290
F802        F  0.56738526  0.15403084  0.89205308    -0.12930
C803        C  0.37990877  0.18727060  0.07663482     0.25080
C804        C  0.39949225  0.21033995  0.08858605    -0.23020
C805        C  0.43017812  0.20274072  0.09692559     0.19990
C806        C  0.44146649  0.17262933  0.09250512     0.25030
C807        C  0.42219200  0.14958603  0.07962772    -0.22970
C808        C  0.39113364  0.15715148  0.07210232     0.19930
F809        F  0.37211448  0.13596568  0.05862997    -0.12930
F810        F  0.35020219  0.19425812  0.06830127    -0.15290
F811        F  0.47135917  0.16610475  0.10055564    -0.15290
F812        F  0.44911795  0.22446916  0.10963265    -0.12930
C813        C  0.90044188  0.37007439  0.94244272     0.25080
C814        C  0.93312495  0.37152504  0.94373349    -0.23020
C815        C  0.95053446  0.34437197  0.93782468     0.19990
C816        C  0.93570797  0.31603360  0.93332779     0.25030
C817        C  0.90311470  0.31409303  0.93435064    -0.22970
C818        C  0.88553662  0.34153238  0.93780684     0.19930
F819        F  0.85395475  0.34046076  0.93841973    -0.12930
F820        F  0.88290090  0.39571843  0.94796010    -0.15290
F821        F  0.95335346  0.29035116  0.92820201    -0.15290
F822        F  0.98216506  0.34495246  0.93770171    -0.12930
C823        C  0.81829623  0.59658920  0.09193647     0.25080
C824        C  0.81554795  0.59142943  0.12397405    -0.23020
C825        C  0.84224482  0.58364464  0.14134480     0.19990
C826        C  0.87084336  0.57904842  0.12650427     0.25030
C827        C  0.87304215  0.58214337  0.09410680    -0.22970
C828        C  0.84676755  0.59208140  0.07715477     0.19930
F829        F  0.84835463  0.59616268  0.04592820    -0.12930
F830        F  0.79328041  0.60569399  0.07484900    -0.15290
F831        F  0.89561144  0.56907693  0.14345208    -0.15290
F832        F  0.84022590  0.57873013  0.17241923    -0.12930
C833        C  0.09251919  0.43616934  0.21000838     0.25080
C834        C  0.08988899  0.40380755  0.21226906    -0.23020
C835        C  0.08569340  0.38637461  0.18498447     0.19990
C836        C  0.08228887  0.40130550  0.15616378     0.25030
C837        C  0.08324910  0.43392418  0.15418184    -0.22970
C838        C  0.08950577  0.45102986  0.18138536     0.19930
F839        F  0.09174118  0.48248031  0.18056344    -0.12930
F840        F  0.09818022  0.45354531  0.23562732    -0.15290
F841        F  0.07616986  0.38395065  0.13065936    -0.15290
F842        F  0.08353494  0.35496113  0.18642958    -0.12930
C843        C  0.84591228  0.55238107  0.89036679     0.25080
C844        C  0.82408376  0.57088022  0.90625268    -0.23020
C845        C  0.82648735  0.57347512  0.93857484     0.19990
C846        C  0.84935536  0.55729940  0.95494316     0.25030
C847        C  0.87101819  0.53797453  0.93947365    -0.22970
C848        C  0.86913195  0.53593889  0.90683453     0.19930
F849        F  0.88961328  0.51809008  0.89084957    -0.12930
F850        F  0.84414754  0.54946723  0.85906940    -0.15290
F851        F  0.84953019  0.56022537  0.98630870    -0.15290
F852        F  0.80637810  0.59180585  0.95456370    -0.12930
C853        C  0.62790180  0.17918728  0.06222228     0.25080
C854        C  0.61350311  0.20674868  0.07261906    -0.23020
C855        C  0.58108979  0.21017223  0.06842599     0.19990
C856        C  0.56370565  0.18708626  0.05399183     0.25030
C857        C  0.57796853  0.15973289  0.04364939    -0.22970
C858        C  0.61021614  0.15585621  0.04774449     0.19930
F859        F  0.62431713  0.12914148  0.03873261    -0.12930
F860        F  0.65901628  0.17492342  0.06583388    -0.15290
F861        F  0.53258696  0.19141484  0.05017866    -0.15290
F862        F  0.56579731  0.23552731  0.07925068    -0.12930
C863        C  0.34479213  0.34341224  0.74252597     0.25080
C864        C  0.37465880  0.33404665  0.75194837    -0.23020
C865        C  0.37892519  0.30426066  0.76481996     0.19990
C866        C  0.35347523  0.28434667  0.76876873     0.25030
C867        C  0.32346027  0.29430614  0.76047162    -0.22970
C868        C  0.31934646  0.32370990  0.74688572     0.19930
F869        F  0.29048413  0.33351342  0.73842177    -0.12930
F870        F  0.34003380  0.37234646  0.73081902    -0.15290
F871        F  0.35790655  0.25583680  0.78158807    -0.15290
F872        F  0.40758158  0.29498219  0.77448890    -0.12930
C873        C  0.48570918  0.40634582  0.70156102     0.25080
C874        C  0.45294578  0.40649756  0.70294121    -0.23020
C875        C  0.43612329  0.42144313  0.67919608     0.19990
C876        C  0.45178705  0.43734163  0.65544097     0.25030
C877        C  0.48457311  0.43801557  0.65459115    -0.22970
C878        C  0.50137433  0.42168119  0.67743883     0.19930
F879        F  0.53297832  0.42225746  0.67757123    -0.12930
F880        F  0.50256880  0.39190735  0.72406606    -0.15290
F881        F  0.43489680  0.45262819  0.63352053    -0.15290
F882        F  0.40452803  0.42210858  0.67994191    -0.12930
C883        C  0.67213837  0.52924562  0.10501884     0.25080
C884        C  0.65417379  0.54901757  0.08583037    -0.23020
C885        C  0.65908851  0.58138218  0.08771272     0.19990
C886        C  0.68230426  0.59341204  0.10693826     0.25030
C887        C  0.70119535  0.57351374  0.12461006    -0.22970
C888        C  0.69561957  0.54142981  0.12399090     0.19930
F889        F  0.71356184  0.52183207  0.14113499    -0.12930
F890        F  0.66809254  0.49800297  0.10443822    -0.15290
F891        F  0.68757567  0.62448827  0.10691950    -0.15290
F892        F  0.64201337  0.60155047  0.07034450    -0.12930
C893        C  0.65401747  0.58603092  0.89442256     0.25080
C894        C  0.64918708  0.58486941  0.92677054    -0.23020
C895        C  0.67505163  0.58912605  0.94658285     0.19990
C896        C  0.70491539  0.59322450  0.93439570     0.25030
C897        C  0.70978973  0.59310723  0.90216244    -0.22970
C898        C  0.68396382  0.58993851  0.88231369     0.19930
F899        F  0.68784009  0.58935415  0.85105124    -0.12930
F900        F  0.63005368  0.58195984  0.87429090    -0.15290
F901        F  0.72908391  0.59758450  0.95423722    -0.15290
F902        F  0.67173217  0.58874923  0.97792053    -0.12930
C903        C  0.41991755  0.36065149  0.03193206     0.25080
C904        C  0.44586878  0.37226837  0.04831828    -0.23020
C905        C  0.45225185  0.36003779  0.07821320     0.19990
C906        C  0.43383947  0.33654637  0.09082630     0.25030
C907        C  0.40867674  0.32462951  0.07412468    -0.22970
C908        C  0.40156660  0.33692717  0.04475885     0.19930
F909        F  0.37712306  0.32561340  0.02836048    -0.12930
F910        F  0.41243831  0.37187190  0.00340112    -0.15290
F911        F  0.44119627  0.32464081  0.11913828    -0.15290
F912        F  0.47691336  0.37000724  0.09517830    -0.12930
C913        C  0.58092087  0.35506428  0.08630105     0.25080
C914        C  0.60120783  0.38061995  0.08302751    -0.23020
C915        C  0.63354040  0.37548725  0.08592306     0.19990
C916        C  0.64523538  0.34542996  0.09038210     0.25030
C917        C  0.62490453  0.31994067  0.09222948    -0.22970
C918        C  0.59265016  0.32521211  0.09087627     0.19930
F919        F  0.57225939  0.30139722  0.09428341    -0.12930
F920        F  0.54954310  0.35860908  0.08440101    -0.15290
F921        F  0.67653669  0.34113094  0.09172603    -0.15290
F922        F  0.65405606  0.39927089  0.08322032    -0.12930
C923        C  0.45253128  0.58604000  0.82009681     0.25080
C924        C  0.45198202  0.61862572  0.82219806    -0.23020
C925        C  0.46485782  0.63288091  0.84860852     0.19990
C926        C  0.47895288  0.61480204  0.87199721     0.25030
C927        C  0.47986374  0.58228545  0.86940648    -0.22970
C928        C  0.46629106  0.56813909  0.84339455     0.19930
F929        F  0.46703964  0.53678049  0.84016590    -0.12930
F930        F  0.43974782  0.57143108  0.79529783    -0.15290
F931        F  0.49111196  0.62892182  0.89735141    -0.15290
F932        F  0.46455434  0.66426439  0.85130362    -0.12930
C933        C  0.47297751  0.42163762  0.85702526     0.25080
C934        C  0.44880964  0.42696963  0.87825136    -0.23020
C935        C  0.41794874  0.42157101  0.86942305     0.19990
C936        C  0.41130556  0.41101217  0.83943332     0.25030
C937        C  0.43561995  0.40516142  0.81810871    -0.22970
C938        C  0.46653863  0.41051536  0.82736449     0.19930
F939        F  0.49066224  0.40427768  0.80800770    -0.12930
F940        F  0.50301549  0.42706631  0.86519140    -0.15290
F941        F  0.38107290  0.40732300  0.83101078    -0.15290
F942        F  0.39431116  0.42727307  0.88951243    -0.12930
C943        C  0.34378014  0.09161498  0.42012383     0.25080
C944        C  0.32464436  0.07272416  0.40189642    -0.23020
C945        C  0.33024701  0.04058380  0.40114917     0.19990
C946        C  0.35398637  0.02735037  0.41936093     0.25030
C947        C  0.37216316  0.04607745  0.43913037    -0.22970
C948        C  0.36722289  0.07855750  0.43852889     0.19930
F949        F  0.38445800  0.09788065  0.45645223    -0.12930
F950        F  0.33852494  0.12268439  0.42154071    -0.15290
F951        F  0.35812198  0.99611034  0.41863374    -0.15290
F952        F  0.31215781  0.02194108  0.38335804    -0.12930
C953        C  0.93363020  0.94896562  0.34892085     0.25080
C954        C  0.94255951  0.93176284  0.37535219    -0.23020
C955        C  0.94424956  0.89923710  0.37343228     0.19990
C956        C  0.93964071  0.88446113  0.34491424     0.25030
C957        C  0.93312242  0.90203052  0.31803592    -0.22970
C958        C  0.92900108  0.93426169  0.32059237     0.19930
F959        F  0.92097764  0.95168810  0.29548154    -0.12930
F960        F  0.93086723  0.98036780  0.35014900    -0.15290
F961        F  0.94350213  0.85322202  0.34319625    -0.15290
F962        F  0.95296186  0.88199360  0.39842189    -0.12930
C963        C  0.12796201  0.86941353  0.57459862     0.25080
C964        C  0.09674552  0.87412317  0.58338863    -0.23020
C965        C  0.08041165  0.84978067  0.59786484     0.19990
C966        C  0.09425062  0.82072690  0.60162518     0.25030
C967        C  0.12468115  0.81550367  0.59116202    -0.22970
C968        C  0.14190168  0.84019425  0.57859355     0.19930
F969        F  0.17158381  0.83554789  0.56882543    -0.12930
F970        F  0.14404753  0.89220166  0.55985439    -0.15290
F971        F  0.07772258  0.79738198  0.61495661    -0.15290
F972        F  0.05043964  0.85378102  0.60707929    -0.12930
C973        C  0.15491476  0.07279453  0.58610426     0.25080
C974        C  0.15176180  0.04039522  0.58972146    -0.23020
C975        C  0.17203689  0.02464755  0.61008734     0.19990
C976        C  0.19613400  0.04073138  0.62501561     0.25030
C977        C  0.19988047  0.07285415  0.62034926    -0.22970
C978        C  0.17860630  0.08885465  0.60142502     0.19930
F979        F  0.18188803  0.11980780  0.59634860    -0.12930
F980        F  0.13548968  0.08887131  0.56700399    -0.15290
F981        F  0.21638068  0.02483520  0.64338023    -0.15290
F982        F  0.16984193  0.99343725  0.61395588    -0.12930
C983        C  0.16372775  0.05905578  0.40712952     0.25080
C984        C  0.15145407  0.08004271  0.42881650    -0.23020
C985        C  0.16832120  0.10673114  0.43662575     0.19990
C986        C  0.19738844  0.11219836  0.42307028     0.25030
C987        C  0.21017462  0.09048997  0.40239326    -0.22970
C988        C  0.19303803  0.06415560  0.39413421     0.19930
F989        F  0.20500400  0.04314869  0.37395777    -0.12930
F990        F  0.14819170  0.03255277  0.40016548    -0.15290
F991        F  0.21359848  0.13803243  0.43091408    -0.15290
F992        F  0.15713301  0.12677188  0.45816446    -0.12930
C993        C  0.90777024  0.82560754  0.53903820     0.25080
C994        C  0.90543134  0.82595757  0.57166222    -0.23020
C995        C  0.91767896  0.85141150  0.58795364     0.19990
C996        C  0.93343568  0.87510769  0.57212419     0.25030
C997        C  0.93669270  0.87416787  0.53967270    -0.22970
C998        C  0.92305929  0.84962748  0.52317836     0.19930
F999        F  0.92634452  0.84783795  0.49190297    -0.12930
F1000       F  0.89587215  0.80158057  0.52256457    -0.15290
F1001       F  0.94620258  0.89870006  0.58858113    -0.15290
F1002       F  0.91604627  0.85243245  0.61939307    -0.12930
C1003       C  0.02165634  0.60473942  0.17458871     0.25080
C1004       C  0.03825093  0.59113968  0.15005053    -0.23020
C1005       C  0.07089374  0.59377059  0.14948507     0.19990
C1006       C  0.08676696  0.60889107  0.17346469     0.25030
C1007       C  0.07033230  0.62125353  0.19882221    -0.22970
C1008       C  0.03755252  0.61947820  0.19886127     0.19930
F1009       F  0.02092871  0.63146829  0.22278817    -0.12930
F1010       F  0.99021938  0.60190331  0.17615535    -0.15290
F1011       F  0.11835391  0.60980652  0.17276160    -0.15290
F1012       F  0.08751250  0.58088854  0.12601607    -0.12930
C1013       C  0.67757777  0.43770153  0.42292589     0.25080
C1014       C  0.69938526  0.45489557  0.40570324    -0.23020
C1015       C  0.69628829  0.48746117  0.40438676     0.19990
C1016       C  0.67267381  0.50261493  0.42085587     0.25030
C1017       C  0.65184171  0.48557647  0.43934041    -0.22970
C1018       C  0.65416024  0.45292476  0.43977115     0.19930
F1019       F  0.63399620  0.43575930  0.45693335    -0.12930
F1020       F  0.67997548  0.40632804  0.42489702    -0.15290
F1021       F  0.67144213  0.53411608  0.42026932    -0.15290
F1022       F  0.71678870  0.50474495  0.38773711    -0.12930
C1023       C  0.07003181  0.68015767  0.55092898     0.25080
C1024       C  0.08595521  0.65521243  0.53681882    -0.23020
C1025       C  0.11870718  0.65428292  0.53888902     0.19990
C1026       C  0.13499364  0.67777674  0.55475522     0.25030
C1027       C  0.11880937  0.70270180  0.56847060    -0.22970
C1028       C  0.08616995  0.70330714  0.56661536     0.19930
F1029       F  0.06960946  0.72629215  0.58049426    -0.12930
F1030       F  0.03853968  0.68267008  0.54918536    -0.15290
F1031       F  0.16653777  0.67648317  0.55622661    -0.15290
F1032       F  0.13489149  0.63046721  0.52608564    -0.12930
C1033       C  0.91292042  0.66972505  0.55591644     0.25080
C1034       C  0.92830817  0.65180871  0.57852111    -0.23020
C1035       C  0.93173569  0.66343193  0.60866454     0.19990
C1036       C  0.92035333  0.69306712  0.61590218     0.25030
C1037       C  0.90612456  0.71151054  0.59279606    -0.22970
C1038       C  0.90198124  0.69935409  0.56295137     0.19930
F1039       F  0.88759751  0.71635426  0.54051290    -0.12930
F1040       F  0.91007215  0.65908385  0.52642129    -0.15290
F1041       F  0.92452747  0.70436452  0.64497273    -0.15290
F1042       F  0.94750131  0.64684484  0.63046014    -0.12930
C1043       C  0.03587882  0.39943602  0.33018138     0.25080
C1044       C  0.06833296  0.40130585  0.32628118    -0.23020
C1045       C  0.08584654  0.41897315  0.34731153     0.19990
C1046       C  0.07105815  0.43572708  0.37088124     0.25030
C1047       C  0.03844405  0.43475269  0.37425470    -0.22970
C1048       C  0.02107550  0.41571720  0.35419646     0.19930
F1049       F  0.98959385  0.41436955  0.35660801    -0.12930
F1050       F  0.01846296  0.38238133  0.31025455    -0.15290
F1051       F  0.08863652  0.45342632  0.39010855    -0.15290
F1052       F  0.11718465  0.42137187  0.34396886    -0.12930
C1053       C  0.10811644  0.60269949  0.36425986     0.25080
C1054       C  0.07730306  0.59660608  0.37277277    -0.23020
C1055       C  0.05300022  0.60443917  0.35235192     0.19990
C1056       C  0.05930576  0.61754518  0.32342712     0.25030
C1057       C  0.09022006  0.62241265  0.31392792    -0.22970
C1058       C  0.11463047  0.61532489  0.33492493     0.19930
F1059       F  0.14485525  0.61896539  0.32650870    -0.12930
F1060       F  0.13187291  0.59479361  0.38354558    -0.15290
F1061       F  0.03506703  0.62528914  0.30465793    -0.15290
F1062       F  0.02297384  0.59836729  0.36012513    -0.12930
C1063       C  0.84804263  0.46914787  0.57074075     0.25080
C1064       C  0.87121385  0.48665962  0.58606152    -0.23020
C1065       C  0.87060549  0.48777007  0.61877602     0.19990
C1066       C  0.84721978  0.47209415  0.63554367     0.25030
C1067       C  0.82389370  0.45534757  0.61990482    -0.22970
C1068       C  0.82491791  0.45375199  0.58741570     0.19930
F1069       F  0.80330626  0.43710814  0.57159792    -0.12930
F1070       F  0.84702295  0.46738212  0.53929040    -0.15290
F1071       F  0.84681795  0.47403938  0.66696636    -0.15290
F1072       F  0.89260671  0.50386968  0.63455430    -0.12930
C1073       C  0.84823488  0.43344307  0.44475446     0.25080
C1074       C  0.87328423  0.44697958  0.42871263    -0.23020
C1075       C  0.86909829  0.45646744  0.39770148     0.19990
C1076       C  0.83977970  0.45395050  0.38360067     0.25030
C1077       C  0.81437534  0.44220421  0.40046001    -0.22970
C1078       C  0.81909168  0.43113093  0.43079225     0.19930
F1079       F  0.79536780  0.41795054  0.44693290    -0.12930
F1080       F  0.85174547  0.42350819  0.47451556    -0.15290
F1081       F  0.83585005  0.46411745  0.35400021    -0.15290
F1082       F  0.89265514  0.47029968  0.38189945    -0.12930
C1083       C  0.37060895  0.94831411  0.08947507     0.25080
C1084       C  0.37048917  0.98050179  0.08337640    -0.23020
C1085       C  0.34688007  0.99889744  0.09663565     0.19990
C1086       C  0.32298607  0.98511977  0.11403308     0.25030
C1087       C  0.32233347  0.95274076  0.11872305    -0.22970
C1088       C  0.34683252  0.93462278  0.10690028     0.19930
F1089       F  0.34688605  0.90331015  0.11067090    -0.12930
F1090       F  0.39346660  0.92982456  0.07796782    -0.15290
F1091       F  0.30012891  0.00339237  0.12586158    -0.15290
F1092       F  0.34590118  0.02998515  0.09139370    -0.12930
C1093       C  0.95792147  0.08379098  0.32319707     0.25080
C1094       C  0.95386661  0.11617880  0.32381576    -0.23020
C1095       C  0.96629061  0.13290703  0.34905531     0.19990
C1096       C  0.98296957  0.11744661  0.37275640     0.25030
C1097       C  0.98740425  0.08505348  0.37156271    -0.22970
C1098       C  0.97475104  0.06860092  0.34630271     0.19930
F1099       F  0.97907433  0.03748146  0.34345835    -0.12930
F1100       F  0.94520202  0.06645390  0.30018929    -0.15290
F1101       F  0.99423172  0.13401370  0.39700739    -0.15290
F1102       F  0.96287446  0.16420039  0.35047291    -0.12930
C1103       C  0.18311419  0.24778061  0.85120304     0.25080
C1104       C  0.18489892  0.27330895  0.87152699    -0.23020
C1105       C  0.20509105  0.29777288  0.86347074     0.19990
C1106       C  0.22361360  0.29600433  0.83657793     0.25030
C1107       C  0.22459973  0.26850527  0.81857435    -0.22970
C1108       C  0.20427457  0.24419788  0.82713993     0.19930
F1109       F  0.20547056  0.21585036  0.81356700    -0.12930
F1110       F  0.16102539  0.22550324  0.85470278    -0.15290
F1111       F  0.24034242  0.32142201  0.82845096    -0.15290
F1112       F  0.20762287  0.32317230  0.88180724    -0.12930
C1113       C  0.13408452  0.34964514  0.96560881     0.25080
C1114       C  0.11794932  0.32278939  0.95612595    -0.23020
C1115       C  0.08592371  0.32066830  0.96251406     0.19990
C1116       C  0.07068319  0.34387225  0.97903554     0.25030
C1117       C  0.08668094  0.37054008  0.98911870    -0.22970
C1118       C  0.11856742  0.37333744  0.98207074     0.19930
F1119       F  0.13449486  0.39913168  0.99053291    -0.12930
F1120       F  0.16495127  0.35260596  0.95960315    -0.15290
F1121       F  0.04005182  0.33978434  0.98573573    -0.15290
F1122       F  0.06907721  0.29594852  0.95263376    -0.12930
C1123       C  0.18959255  0.93266911  0.93245110     0.25080
C1124       C  0.20080344  0.94874889  0.90652293    -0.23020
C1125       C  0.18766912  0.97763057  0.89869320     0.19990
C1126       C  0.16413711  0.99071025  0.91720302     0.25030
C1127       C  0.15339831  0.97504128  0.94397105    -0.22970
C1128       C  0.16617040  0.94546613  0.95090553     0.19930
F1129       F  0.15699880  0.92914060  0.97630328    -0.12930
F1130       F  0.20222467  0.90486356  0.94057411    -0.15290
F1131       F  0.15234760  0.01887986  0.90915823    -0.15290
F1132       F  0.19838568  0.99361185  0.87369946    -0.12930
C1133       C  0.17113189  0.93467988  0.07957527     0.25080
C1134       C  0.14610931  0.94115816  0.09980857    -0.23020
C1135       C  0.15201216  0.94245958  0.13195860     0.19990
C1136       C  0.18223079  0.93855852  0.14338988     0.25030
C1137       C  0.20721321  0.93305193  0.12305553    -0.22970
C1138       C  0.20130733  0.93069676  0.09110782     0.19930
F1139       F  0.22473199  0.92415688  0.07100601    -0.12930
F1140       F  0.16661981  0.93265657  0.04845542    -0.15290
F1141       F  0.18726388  0.94130124  0.17437425    -0.15290
F1142       F  0.12890458  0.94907063  0.15238711    -0.12930
C1143       C  0.92579287  0.17524399  0.00094156     0.25080
C1144       C  0.94117659  0.15369266  0.98174399    -0.23020
C1145       C  0.93533686  0.15461097  0.94955176     0.19990
C1146       C  0.91616662  0.17758002  0.93668388     0.25030
C1147       C  0.90236524  0.20024491  0.95563301    -0.22970
C1148       C  0.90672740  0.19839195  0.98796615     0.19930
F1149       F  0.89315809  0.21956119  0.00693605    -0.12930
F1150       F  0.93047836  0.17503928  0.03210174    -0.15290
F1151       F  0.91274616  0.17879660  0.90537555    -0.15290
F1152       F  0.94873441  0.13361339  0.93026964    -0.12930
C1153       C  0.14731568  0.18223189  0.94974833     0.25080
C1154       C  0.12780337  0.20813510  0.94531877    -0.23020
C1155       C  0.09554241  0.20343910  0.94240060     0.19990
C1156       C  0.08295795  0.17365166  0.94451271     0.25030
C1157       C  0.10234175  0.14762604  0.94955058    -0.22970
C1158       C  0.13478077  0.15230437  0.95176956     0.19930
F1159       F  0.15443914  0.12812258  0.95703062    -0.12930
F1160       F  0.17856453  0.18595027  0.95264690    -0.15290
F1161       F  0.05162795  0.17045290  0.94169337    -0.15290
F1162       F  0.07611437  0.22767180  0.93647654    -0.12930
C1163       C  0.97288371  0.89326014  0.18342969     0.25080
C1164       C  0.95124536  0.90572869  0.20447238    -0.23020
C1165       C  0.94198942  0.93683167  0.20118496     0.19990
C1166       C  0.95455962  0.95546661  0.17789484     0.25030
C1167       C  0.97686620  0.94350113  0.15713373    -0.22970
C1168       C  0.98581516  0.91209100  0.16001187     0.19930
F1169       F  0.00687345  0.89961320  0.14014700    -0.12930
F1170       F  0.98219677  0.86324286  0.18619108    -0.15290
F1171       F  0.94567167  0.98572910  0.17653555    -0.15290
F1172       F  0.92090750  0.94939075  0.22101335    -0.12930
C1173       C  0.92680445  0.08330927  0.17004378     0.25080
C1174       C  0.94484455  0.10094301  0.14924032    -0.23020
C1175       C  0.95710117  0.12960158  0.15901471     0.19990
C1176       C  0.95186743  0.14011183  0.18919508     0.25030
C1177       C  0.93432502  0.12221700  0.20996605    -0.22970
C1178       C  0.92143970  0.09400291  0.20017158     0.19930
F1179       F  0.90372149  0.07685538  0.21986084    -0.12930
F1180       F  0.91452949  0.05568971  0.16122751    -0.15290
F1181       F  0.96454882  0.16739882  0.19846076    -0.15290
F1182       F  0.97570654  0.14656527  0.13998485    -0.12930
C1183       C  0.18991257  0.75489447  0.71074224     0.25080
C1184       C  0.22235048  0.75124998  0.70877373    -0.23020
C1185       C  0.23569000  0.74209064  0.68030723     0.19990
C1186       C  0.21705884  0.73820874  0.65399545     0.25030
C1187       C  0.18495047  0.74355822  0.65570379    -0.22970
C1188       C  0.17137533  0.75114636  0.68437062     0.19930
F1189       F  0.14031777  0.75678204  0.68629257    -0.12930
F1190       F  0.17632111  0.76315661  0.73792364    -0.15290
F1191       F  0.23064962  0.73179599  0.62630751    -0.15290
F1192       F  0.26703890  0.73940394  0.67728230    -0.12930
C1193       C  0.23492604  0.82806097  0.81181946     0.25080
C1194       C  0.25737894  0.82748277  0.78819578    -0.23020
C1195       C  0.27528059  0.85403001  0.78232521     0.19990
C1196       C  0.27174363  0.88041755  0.80087461     0.25030
C1197       C  0.25078381  0.88029798  0.82608969    -0.22970
C1198       C  0.23177438  0.85412452  0.83078189     0.19930
F1199       F  0.21186217  0.85273872  0.85519133    -0.12930
F1200       F  0.21729456  0.80257918  0.81766950    -0.15290
F1201       F  0.28958467  0.90573553  0.79491340    -0.15290
F1202       F  0.29657978  0.85413181  0.75906717    -0.12930
C1203       C  0.33846341  0.73064091  0.79433156     0.25080
C1204       C  0.32014674  0.73048831  0.76697101    -0.23020
C1205       C  0.32951485  0.71075078  0.74264108     0.19990
C1206       C  0.35455374  0.69069532  0.74617321     0.25030
C1207       C  0.37453908  0.69279425  0.77204344    -0.22970
C1208       C  0.36593078  0.71279787  0.79637544     0.19930
F1209       F  0.38418505  0.71556200  0.82192561    -0.12930
F1210       F  0.32991907  0.74773287  0.81929782    -0.15290
F1211       F  0.35907330  0.66906028  0.72374146    -0.15290
F1212       F  0.31537933  0.71130985  0.71446688    -0.12930
C1213       C  0.70751635  0.19964724  0.74966247     0.25080
C1214       C  0.70297335  0.23169553  0.75380668    -0.23020
C1215       C  0.67257291  0.24391876  0.75261323     0.19990
C1216       C  0.64702275  0.22408046  0.74910279     0.25030
C1217       C  0.65164533  0.19194913  0.74634856    -0.22970
C1218       C  0.68202438  0.17993894  0.74595425     0.19930
F1219       F  0.68683416  0.14885420  0.74378785    -0.12930
F1220       F  0.73664694  0.18733816  0.75018832    -0.15290
F1221       F  0.61773071  0.23593837  0.75020638    -0.15290
F1222       F  0.66751657  0.27472081  0.75697434    -0.12930
C1223       C  0.78070653  0.25013639  0.85241412     0.25080
C1224       C  0.79352526  0.25513476  0.82274074    -0.23020
C1225       C  0.82603129  0.25423359  0.81900307     0.19990
C1226       C  0.84541922  0.25030844  0.84467865     0.25030
C1227       C  0.83267007  0.24697324  0.87444967    -0.22970
C1228       C  0.80024844  0.24613160  0.87816777     0.19930
F1229       F  0.78763389  0.24344738  0.90692318    -0.12930
F1230       F  0.74942041  0.25120534  0.85677030    -0.15290
F1231       F  0.87677384  0.25137026  0.84077396    -0.15290
F1232       F  0.83904050  0.25800404  0.79053090    -0.12930
C1233       C  0.78213642  0.32095373  0.70338333     0.25080
C1234       C  0.76971539  0.32458899  0.73327271    -0.23020
C1235       C  0.76397676  0.35452061  0.74471694     0.19990
C1236       C  0.76885770  0.38045849  0.72575178     0.25030
C1237       C  0.78006810  0.37676885  0.69536049    -0.22970
C1238       C  0.78742450  0.34693367  0.68455779     0.19930
F1239       F  0.79748530  0.34284528  0.65499605    -0.12930
F1240       F  0.78817717  0.29215979  0.69215555    -0.15290
F1241       F  0.76086201  0.40905754  0.73628063    -0.15290
F1242       F  0.75194677  0.35844257  0.77356674    -0.12930
C1243       C  0.73881685  0.25215419  0.17711363     0.25080
C1244       C  0.72605288  0.25376773  0.20711324    -0.23020
C1245       C  0.69373040  0.25052110  0.21098177     0.19990
C1246       C  0.67432895  0.24691015  0.18519689     0.25030
C1247       C  0.68693760  0.24658750  0.15517377    -0.22970
C1248       C  0.71930978  0.24884168  0.15127684     0.19930
F1249       F  0.73176555  0.24963329  0.12234093    -0.12930
F1250       F  0.76992443  0.25555867  0.17273549    -0.15290
F1251       F  0.64302892  0.24549426  0.18934407    -0.15290
F1252       F  0.68093300  0.25140694  0.23976531    -0.12930
C1253       C  0.86971908  0.21369357  0.25876398     0.25080
C1254       C  0.87089665  0.18790357  0.27894179    -0.23020
C1255       C  0.84505308  0.18153982  0.29801044     0.19990
C1256       C  0.81790628  0.19959673  0.29550012     0.25030
C1257       C  0.81621975  0.22376818  0.27361720    -0.22970
C1258       C  0.84253054  0.23118644  0.25588293     0.19930
F1259       F  0.84164929  0.25514284  0.23530318    -0.12930
F1260       F  0.89465736  0.22122752  0.24090597    -0.15290
F1261       F  0.79284206  0.19269281  0.31337101    -0.15290
F1262       F  0.84533838  0.15675659  0.31754869    -0.12930
C1263       C  0.72614130  0.36296698  0.31989550     0.25080
C1264       C  0.75178511  0.37252941  0.33798555    -0.23020
C1265       C  0.77859383  0.35340905  0.33788910     0.19990
C1266       C  0.78123150  0.32850235  0.31771526     0.25030
C1267       C  0.75532123  0.31779054  0.30076760    -0.22970
C1268       C  0.72738773  0.33522282  0.30276918     0.19930
F1269       F  0.70095968  0.32555552  0.28856489    -0.12930
F1270       F  0.69985258  0.38039911  0.31823737    -0.15290
F1271       F  0.80994762  0.31570114  0.31442181    -0.15290
F1272       F  0.80264991  0.35808017  0.35779858    -0.12930
C1273       C  0.32565330  0.27943981  0.20566113     0.25080
C1274       C  0.29394425  0.27270538  0.20164516    -0.23020
C1275       C  0.28148036  0.27102396  0.17152913     0.19990
C1276       C  0.30092675  0.27433375  0.14571950     0.25030
C1277       C  0.33282906  0.27994435  0.14981694    -0.22970
C1278       C  0.34496001  0.28320328  0.17987046     0.19930
F1279       F  0.37590051  0.28797617  0.18418107    -0.12930
F1280       F  0.33805333  0.28127769  0.23458640    -0.15290
F1281       F  0.28904633  0.27040951  0.11679619    -0.15290
F1282       F  0.25095755  0.26412424  0.16718488    -0.12930
C1283       C  0.24870012  0.17529388  0.28470385     0.25080
C1284       C  0.26839110  0.20086330  0.28851803    -0.23020
C1285       C  0.29257698  0.19949300  0.31040206     0.19990
C1286       C  0.29559450  0.17361064  0.32995930     0.25030
C1287       C  0.27465853  0.14863678  0.32742875    -0.22970
C1288       C  0.25208330  0.14919231  0.30365351     0.19930
F1289       F  0.23242340  0.12487914  0.29960980    -0.12930
F1290       F  0.22556433  0.17605169  0.26320705    -0.15290
F1291       F  0.31742759  0.17403328  0.35274351    -0.15290
F1292       F  0.31201589  0.22401630  0.31406039    -0.12930
C1293       C  0.18078766  0.34575065  0.27914401     0.25080
C1294       C  0.15064422  0.33328996  0.27913696    -0.23020
C1295       C  0.14654787  0.30119141  0.27570167     0.19990
C1296       C  0.17234848  0.28183180  0.27115413     0.25030
C1297       C  0.20249431  0.29450646  0.26967762    -0.22970
C1298       C  0.20655031  0.32650970  0.27448771     0.19930
F1299       F  0.23544368  0.33923012  0.27388009    -0.12930
F1300       F  0.18505502  0.37684520  0.28191362    -0.15290
F1301       F  0.16772258  0.25108225  0.26615836    -0.15290
F1302       F  0.11745866  0.28895400  0.27484861    -0.12930
C1303       C  0.77722187  0.67059767  0.24507169     0.25080
C1304       C  0.75864828  0.69697837  0.24046519    -0.23020
C1305       C  0.73475831  0.69650719  0.21825837     0.19990
C1306       C  0.73108472  0.67068677  0.19903117     0.25030
C1307       C  0.75106815  0.64492186  0.20222196    -0.22970
C1308       C  0.77318883  0.64456799  0.22639145     0.19930
F1309       F  0.79202758  0.61955936  0.23080665    -0.12930
F1310       F  0.80002752  0.67054829  0.26692201    -0.15290
F1311       F  0.70981013  0.67198672  0.17574496    -0.15290
F1312       F  0.71643567  0.72186943  0.21383278    -0.12930
C1313       C  0.85539958  0.78083664  0.27665067     0.25080
C1314       C  0.82846256  0.78663706  0.25922976    -0.23020
C1315       C  0.82851537  0.81005778  0.23652275     0.19990
C1316       C  0.85466704  0.82903902  0.23276879     0.25030
C1317       C  0.88107612  0.82456708  0.25164394    -0.22970
C1318       C  0.88164216  0.79945576  0.27269840     0.19930
F1319       F  0.90704834  0.79415441  0.29076786    -0.12930
F1320       F  0.85571846  0.75804412  0.29850993    -0.15290
F1321       F  0.85315845  0.85329132  0.21261006    -0.15290
F1322       F  0.80260955  0.81562394  0.21928786    -0.12930
C1323       C  0.70084828  0.77289897  0.32042015     0.25080
C1324       C  0.73335687  0.77194302  0.32428397    -0.23020
C1325       C  0.74610733  0.77681185  0.35401044     0.19990
C1326       C  0.72652294  0.78045775  0.37969435     0.25030
C1327       C  0.69413781  0.77929584  0.37588701    -0.22970
C1328       C  0.68141565  0.77637925  0.34606457     0.19930
F1329       F  0.65007247  0.77502500  0.34210260    -0.12930
F1330       F  0.68787859  0.76919121  0.29192564    -0.15290
F1331       F  0.73908360  0.78288810  0.40849972    -0.15290
F1332       F  0.77736723  0.77559902  0.35857809    -0.12930
C1333       C  0.26251411  0.85330383  0.24320763     0.25080
C1334       C  0.26889919  0.82322162  0.23248800    -0.23020
C1335       C  0.28068981  0.81906705  0.20241291     0.19990
C1336       C  0.28486451  0.84461654  0.18278021     0.25030
C1337       C  0.27696011  0.87452951  0.19292314    -0.22970
C1338       C  0.26623818  0.87882123  0.22339567     0.19930
F1339       F  0.25784409  0.90753016  0.23330236    -0.12930
F1340       F  0.25097727  0.85770736  0.27218385    -0.15290
F1341       F  0.29453999  0.83998241  0.15316974    -0.15290
F1342       F  0.28715518  0.79012838  0.19179495    -0.12930
C1343       C  0.20895075  0.69726401  0.25109233     0.25080
C1344       C  0.20419896  0.72944522  0.25384641    -0.23020
C1345       C  0.17387312  0.74155259  0.25050558     0.19990
C1346       C  0.14857276  0.72156898  0.24621666     0.25030
C1347       C  0.15334063  0.68937732  0.24498628    -0.22970
C1348       C  0.18368770  0.67740273  0.24679895     0.19930
F1349       F  0.18859545  0.64625808  0.24610059    -0.12930
F1350       F  0.23801890  0.68499475  0.25334222    -0.15290
F1351       F  0.11926355  0.73341049  0.24522296    -0.15290
F1352       F  0.16850281  0.77247643  0.25345544    -0.12930
C1353       C  0.34754797  0.75104837  0.34338593     0.25080
C1354       C  0.33538736  0.74593473  0.37316191    -0.23020
C1355       C  0.30307356  0.74355595  0.37717361     0.19990
C1356       C  0.28302323  0.74774732  0.35180236     0.25030
C1357       C  0.29518473  0.75447405  0.32216246    -0.22970
C1358       C  0.32767375  0.75510022  0.31807685     0.19930
F1359       F  0.34020338  0.76042085  0.28963296    -0.12930
F1360       F  0.37875538  0.75382062  0.33918452    -0.15290
F1361       F  0.25179259  0.74727654  0.35660437    -0.15290
F1362       F  0.29095830  0.73919539  0.40594046    -0.12930
C1363       C  0.79000814  0.75309046  0.67747749     0.25080
C1364       C  0.79390844  0.77235093  0.70330483    -0.23020
C1365       C  0.81621142  0.79611676  0.70241423     0.19990
C1366       C  0.83617557  0.79897135  0.67685037     0.25030
C1367       C  0.83369870  0.77823862  0.65181543    -0.22970
C1368       C  0.80943452  0.75626219  0.65176761     0.19930
F1369       F  0.80545141  0.73687762  0.62729860    -0.12930
F1370       F  0.76805217  0.73044791  0.67767317    -0.15290
F1371       F  0.85930072  0.82037791  0.67763651    -0.15290
F1372       F  0.81992757  0.81519954  0.72712589    -0.12930
C1373       C  0.75868547  0.67478220  0.78462625     0.25080
C1374       C  0.77258438  0.70289852  0.79314621    -0.23020
C1375       C  0.79154597  0.70406058  0.81966948     0.19990
C1376       C  0.79522889  0.67768727  0.83846949     0.25030
C1377       C  0.77983790  0.64995247  0.83092733    -0.22970
C1378       C  0.76225773  0.64848678  0.80338934     0.19930
F1379       F  0.74710434  0.62197345  0.79566978    -0.12930
F1380       F  0.74039039  0.67326480  0.75896515    -0.15290
F1381       F  0.81174596  0.67990908  0.86523672    -0.15290
F1382       F  0.80522680  0.73113523  0.82808423    -0.12930
C1383       C  0.67585029  0.78412042  0.76895016     0.25080
C1384       C  0.70579476  0.79600618  0.77435538    -0.23020
C1385       C  0.70919774  0.82686188  0.78417722     0.19990
C1386       C  0.68303065  0.84597989  0.78741391     0.25030
C1387       C  0.65325797  0.83453150  0.78047208    -0.22970
C1388       C  0.64974745  0.80337492  0.77172857     0.19930
F1389       F  0.62119799  0.79217528  0.76423406    -0.12930
F1390       F  0.67212479  0.75450261  0.75895497    -0.15290
F1391       F  0.68688504  0.87622157  0.79527404    -0.15290
F1392       F  0.73796587  0.83872038  0.78947864    -0.12930
loop_ 
_geom_bond_atom_site_label_1 
_geom_bond_atom_site_label_2 
_geom_bond_distance 
_geom_bond_site_symmetry_2 
_ccdc_geom_bond_type 
C1            C2   1.403       .  A
C1            C6   1.399       .  A
C1         C1374   1.472       .  S
C2            C3   1.403       .  A
C2            H7   1.084       .  S
C3            C4   1.404       .  A
C3         C1384   1.475       .  S
C4            C5   1.400       .  A
C4            H8   1.084       .  S
C5            C6   1.403       .  A
C5         C1364   1.472       .  S
C6            H9   1.084       .  S
C10          C11   1.399       .  A
C10          C15   1.401       .  A
C10        C1334   1.472       .  S
C11          C12   1.405       .  A
C11          H16   1.084       .  S
C12          C13   1.404       .  A
C12        C1357   1.483       .  S
C13          C14   1.407       .  A
C13          H17   1.084       .  S
C14          C15   1.402       .  A
C14        C1344   1.481       .  S
C15          H18   1.084       .  S
C19          C20   1.398       .  A
C19          C24   1.403       .  A
C19        C1314   1.468       .  S
C20          C21   1.400       .  A
C20          H25   1.084       .  S
C21          C22   1.397       .  A
C21        C1304   1.468       .  S
C22          C23   1.405       .  A
C22          H26   1.084       .  S
C23          C24   1.404       .  A
C23        C1324   1.480       .  S
C24          H27   1.084       .  S
C28          C29   1.402       .  A
C28          C33   1.405       .  A
C28        C1297   1.479       .  S
C29          C30   1.402       .  A
C29          H34   1.084       .  S
C30          C31   1.399       .  A
C30        C1284   1.470       .  S
C31          C32   1.402       .  A
C31          H35   1.084       .  S
C32          C33   1.401       .  A
C32        C1274   1.473       .  S
C33          H36   1.084       .  S
C37          C38   1.408       .  A
C37          C42   1.400       .  A
C37        C1244   1.479       .  S
C38          C39   1.412       .  A
C38          H43   1.080       .  S
C39          C40   1.413       .  A
C39        C1267   1.506       .  S
C40          C41   1.397       .  A
C40          H44   1.081       .  S
C41          C42   1.398       .  A
C41        C1257   1.474       .  S
C42          H45   1.084       .  S
C46          C47   1.403       .  A
C46          C51   1.398       .  A
C46        C1234   1.473       .  S
C47          C48   1.404       .  A
C47          H52   1.084       .  S
C48          C49   1.405       .  A
C48        C1214   1.479       .  S
C49          C50   1.402       .  A
C49          H53   1.084       .  S
C50          C51   1.403       .  A
C50        C1224   1.479       .  S
C51          H54   1.084       .  S
C55          C56   1.398       .  A
C55          C60   1.400       .  A
C55        C1184   1.482       .  S
C56          C57   1.410       .  A
C56          H61   1.081       .  S
C57          C58   1.412       .  A
C57        C1204   1.503       .  S
C58          C59   1.407       .  A
C58          H62   1.081       .  S
C59          C60   1.399       .  A
C59        C1194   1.474       .  S
C60          H63   1.084       .  S
O64         Mg66   2.138       .  S
O64         Mg72   2.156       .  S
O64          C99   1.241       .  S
C65         H104   1.081       .  S
C65          O78   1.236       .  S
C65         O102   1.270       .  A
Mg66         O95   2.134   1_655  S
Mg66        O110   2.290       .  S
Mg66        O106   2.240   1_545  S
Mg66         O77   2.299   1_545  S
O67        Mg109   2.156       .  S
O67         Mg92   2.139       .  S
O67          C88   1.240       .  S
O68          C99   1.274   1_556  A
O68         Mg92   2.301   1_655  S
C69        C1134   1.485       .  S
C69          O71   1.274       .  A
C69          O83   1.272       .  A
O70          C98   1.270       .  A
O70         Mg72   2.297   1_455  S
O71        Mg103   2.272       .  S
Mg72         O78   2.117   1_655  S
Mg72         O86   2.260       .  S
Mg72         O74   2.323       .  S
C73        C1127   1.497       .  S
C73         O111   1.270       .  A
C73          O79   1.281   1_565  A
O74          C81   1.277   1_554  A
H75          C88   1.081       .  S
C76         H101   1.081       .  S
C76          O90   1.237       .  S
C76          O91   1.270       .  A
O77         C100   1.272   1_655  A
O78         Mg92   2.131   1_554  S
O79        Mg109   2.351       .  S
C80        C1157   1.487       .  S
C80          O93   1.275       .  A
C80          O85   1.274       .  A
C81        C1144   1.488       .  S
C81         O108   1.272       .  A
Mg82         O89   2.138       .  S
Mg82         O90   2.132   1_565  S
Mg82         O83   2.277       .  S
Mg82         O84   2.296   1_554  S
Mg82        O111   2.240   1_554  S
O84          C88   1.273   1_565  A
O85         Mg92   2.288       .  S
O86         C105   1.273       .  A
O87         C107   1.279   1_455  A
O87        Mg103   2.343       .  S
O89        Mg103   2.152       .  S
O89         C100   1.239       .  S
O90        Mg109   2.123   1_554  S
O91        Mg103   2.300   1_545  S
Mg92        O108   2.260   1_455  S
O93        Mg109   2.274       .  S
H94          C99   1.081       .  S
O95        Mg103   2.125   1_545  S
O95          C98   1.236       .  S
H96          C98   1.081       .  S
H97         C100   1.081       .  S
O102       Mg109   2.299   1_554  S
C105       C1174   1.474       .  S
C105        O110   1.273       .  A
O106        C107   1.271       .  A
C107       C1167   1.486       .  S
C112        C113   1.408       .  A
C112        C117   1.415       .  A
C112       C1114   1.493       .  S
C113        C114   1.397       .  A
C113        H118   1.084       .  S
C114        C115   1.392       .  A
C114       C1154   1.485       .  S
C115        C116   1.407       .  A
C115        H119   1.081       .  S
C116        C117   1.417       .  A
C116       C1104   1.502       .  S
C117        H120   1.082       .  S
C121        C122   1.414       .  A
C121        C126   1.410       .  A
C121       C1094   1.493       .  S
C122        C123   1.412       .  A
C122        H127   1.083       .  S
C123        C124   1.402       .  A
C123       C1254   1.484       .  S
C124        C125   1.389       .  A
C124        H128   1.085       .  S
C125        C126   1.396       .  A
C125       C1177   1.469       .  S
C126        H129   1.084       .  S
C130        C131   1.410       .  A
C130        C135   1.409       .  A
C130       C1087   1.488       .  S
C131        C132   1.403       .  A
C131        H136   1.083       .  S
C132        C133   1.396       .  A
C132       C1337   1.471       .  S
C133        C134   1.397       .  A
C133        H137   1.085       .  S
C134        C135   1.406       .  A
C134       C1137   1.481       .  S
C135        H138   1.084       .  S
O139       Mg141   2.110   1_455  S
O139       Mg147   2.133       .  S
O139        C174   1.236       .  S
C140        H179   1.081       .  S
C140        O153   1.241       .  S
C140        O177   1.277       .  A
Mg141       O170   2.144       .  S
Mg141       O185   2.261   1_655  S
Mg141       O181   2.215       .  S
Mg141       O152   2.287       .  S
O142       Mg184   2.119       .  S
O142       Mg167   2.111   1_655  S
O142        C163   1.236       .  S
O143        C174   1.270   1_655  A
O143       Mg167   2.300   1_655  S
C144       C1064   1.496       .  S
C144        O146   1.277       .  A
C144        O158   1.270       .  A
O145        C173   1.277       .  A
O145       Mg147   2.319       .  S
O146       Mg178   2.324       .  S
Mg147       O153   2.170       .  S
Mg147       O161   2.322       .  S
Mg147       O149   2.351       .  S
C148       C1074   1.471       .  S
C148        O186   1.264       .  A
C148        O154   1.277       .  A
O149        C156   1.279       .  A
H150        C163   1.081       .  S
C151        H176   1.081       .  S
C151        O165   1.240       .  S
C151        O166   1.276       .  A
O152        C175   1.267       .  A
O153       Mg167   2.135       .  S
O154       Mg184   2.343       .  S
C155       C1047   1.486       .  S
C155        O168   1.274   1_455  A
C155        O160   1.273       .  A
C156       C1054   1.466       .  S
C156        O183   1.266       .  A
Mg157       O164   2.097       .  S
Mg157       O165   2.130       .  S
Mg157       O158   2.265       .  S
Mg157       O159   2.302       .  S
Mg157       O186   2.208       .  S
O159        C163   1.270       .  A
O160       Mg167   2.299       .  S
O161        C180   1.277       .  A
O162        C182   1.279       .  A
O162       Mg178   2.344       .  S
O164       Mg178   2.137       .  S
O164        C175   1.235       .  S
O165       Mg184   2.163       .  S
O166       Mg178   2.316       .  S
Mg167       O183   2.218       .  S
O168       Mg184   2.297       .  S
H169        C174   1.081   1_655  S
O170       Mg178   2.166       .  S
O170        C173   1.241   1_655  S
H171        C173   1.081       .  S
H172        C175   1.081       .  S
O177       Mg184   2.323   1_455  S
C180       C1024   1.492       .  S
C180        O185   1.270       .  A
O181        C182   1.266       .  A
C182       C1034   1.462       .  S
C187        C188   1.414       .  A
C187        C192   1.403       .  A
C187       C1014   1.489       .  S
C188        C189   1.419       .  A
C188        H193   1.080       .  S
C189        C190   1.408       .  A
C189       C1264   1.506       .  S
C190        C191   1.390       .  A
C190        H194   1.081       .  S
C191        C192   1.397       .  A
C191       C1077   1.475       .  S
C192        H195   1.084       .  S
C196        C197   1.408       .  A
C196        C201   1.409       .  A
C196       C1007   1.490       .  S
C197        C198   1.403       .  A
C197        H202   1.083       .  S
C198        C199   1.397       .  A
C198       C1347   1.470       .  S
C199        C200   1.398       .  A
C199        H203   1.084       .  S
C200        C201   1.410       .  A
C200       C1057   1.489       .  S
C201        H204   1.083       .  S
C205        C206   1.411       .  A
C205        C210   1.407       .  A
C205        C994   1.489       .  S
C206        C207   1.409       .  A
C206        H211   1.083       .  S
C207        C208   1.402       .  A
C207       C1367   1.483       .  S
C208        C209   1.393       .  A
C208        H212   1.084       .  S
C209        C210   1.403       .  A
C209       C1037   1.476       .  S
C210        H213   1.084       .  S
O214       Mg216   2.110       .  S
O214       Mg222   2.127   1_455  S
O214        C249   1.235       .  S
C215        H254   1.081       .  S
C215        O228   1.241   1_545  S
C215        O252   1.276       .  A
Mg216       O245   2.126       .  S
Mg216       O260   2.300   1_455  S
Mg216       O256   2.215       .  S
Mg216       O227   2.308       .  S
O217       Mg259   2.134       .  S
O217       Mg242   2.096   1_545  S
O217        C238   1.235       .  S
O218        C249   1.268       .  A
O218       Mg242   2.292       .  S
C219        C974   1.484       .  S
C219        O221   1.275   1_545  A
C219        O233   1.271       .  A
O220        C248   1.275   1_655  A
O220       Mg222   2.319       .  S
O221       Mg253   2.305       .  S
Mg222       O228   2.159       .  S
Mg222       O236   2.296       .  S
Mg222       O224   2.340       .  S
C223        C984   1.461       .  S
C223        O261   1.267       .  A
C223        O229   1.277       .  A
O224        C231   1.278       .  A
H225        C238   1.081   1_565  S
C226        H251   1.081       .  S
C226        O240   1.240       .  S
C226        O241   1.276       .  A
O227        C250   1.272       .  A
O228       Mg242   2.139   1_655  S
O229       Mg259   2.332       .  S
C230       C1097   1.489   1_455  S
C230        O243   1.276       .  A
C230        O235   1.268   1_455  A
C231        C954   1.474       .  S
C231        O258   1.264       .  A
Mg232       O239   2.122   1_545  S
Mg232       O240   2.138       .  S
Mg232       O233   2.276       .  S
Mg232       O234   2.293   1_545  S
Mg232       O261   2.229       .  S
O234        C238   1.268   1_565  A
O235       Mg242   2.253   1_645  S
O236        C255   1.274       .  A
O237        C257   1.278       .  A
O237       Mg253   2.345       .  S
O239       Mg253   2.127       .  S
O239        C250   1.237       .  S
O240       Mg259   2.159       .  S
O241       Mg253   2.318   1_545  S
Mg242       O258   2.198   1_455  S
O243       Mg259   2.321       .  S
H244        C249   1.081       .  S
O245       Mg253   2.164       .  S
O245        C248   1.239       .  S
H246        C248   1.081       .  S
H247        C250   1.081       .  S
O252       Mg259   2.314   1_655  S
C255        C997   1.479       .  S
C255        O260   1.273       .  A
O256        C257   1.266       .  A
C257        C964   1.473       .  S
C262        C263   1.410       .  A
C262        C267   1.409       .  A
C262       C1027   1.490       .  S
C263        C264   1.408       .  A
C263        H268   1.083       .  S
C264        C265   1.398       .  A
C264       C1187   1.471       .  S
C265        C266   1.390       .  A
C265        H269   1.085       .  S
C266        C267   1.401       .  A
C266        C967   1.471       .  S
C267        H270   1.084       .  S
C271        C272   1.409       .  A
C271        C276   1.404       .  A
C271        C944   1.480       .  S
C272        C273   1.409       .  A
C272        H277   1.083       .  S
C273        C274   1.402       .  A
C273       C1287   1.483       .  S
C274        C275   1.392       .  A
C274        H278   1.084       .  S
C275        C276   1.400       .  A
C275        C987   1.469       .  S
C276        H279   1.084       .  S
C280        C281   1.408       .  A
C280        C285   1.404       .  A
C280       C1164   1.482       .  S
C281        C282   1.410       .  A
C281        H286   1.083       .  S
C282        C283   1.403       .  A
C282       C1317   1.480       .  S
C283        C284   1.393       .  A
C283        H287   1.084       .  S
C284        C285   1.401       .  A
C284        C957   1.479       .  S
C285        H288   1.084       .  S
O289       Mg291   2.142   1_556  S
O289       Mg297   2.151       .  S
O289        C324   1.240       .  S
C290        H329   1.081       .  S
C290        O303   1.236       .  S
C290        O327   1.271       .  A
Mg291       O320   2.135   1_554  S
Mg291       O335   2.285   1_554  S
Mg291       O331   2.256       .  S
Mg291       O302   2.295       .  S
O292       Mg334   2.154       .  S
O292       Mg317   2.135       .  S
O292        C313   1.239   1_556  S
O293        C324   1.274       .  A
O293       Mg317   2.304       .  S
C294        C914   1.486       .  S
C294        O296   1.273       .  A
C294        O308   1.271       .  A
O295        C323   1.270       .  A
O295       Mg297   2.299       .  S
O296       Mg328   2.273       .  S
Mg297       O303   2.130       .  S
Mg297       O311   2.276       .  S
Mg297       O299   2.347       .  S
C298        C904   1.493       .  S
C298        O336   1.269       .  A
C298        O304   1.279       .  A
O299        C306   1.279       .  A
H300        C313   1.081       .  S
C301        H326   1.081       .  S
C301        O315   1.237   1_556  S
C301        O316   1.270   1_556  A
O302        C325   1.272       .  A
O303       Mg317   2.127       .  S
O304       Mg334   2.339   1_554  S
C305        C934   1.465       .  S
C305        O318   1.273       .  A
C305        O310   1.271       .  A
C306        C927   1.476       .  S
C306        O333   1.269       .  A
Mg307       O314   2.128       .  S
Mg307       O315   2.135       .  S
Mg307       O308   2.271       .  S
Mg307       O309   2.296       .  S
Mg307       O336   2.232       .  S
O309        C313   1.272       .  A
O310       Mg317   2.281       .  S
O311        C330   1.275       .  A
O312        C332   1.277       .  A
O312       Mg328   2.320       .  S
O314       Mg328   2.155       .  S
O314        C325   1.239       .  S
O315       Mg334   2.123   1_554  S
O316       Mg328   2.298       .  S
Mg317       O333   2.234       .  S
O318       Mg334   2.278       .  S
H319        C324   1.081       .  S
O320       Mg328   2.120   1_556  S
O320        C323   1.236       .  S
H321        C323   1.081       .  S
H322        C325   1.081       .  S
O327       Mg334   2.304       .  S
C330        C894   1.489       .  S
C330        O335   1.273       .  A
O331        C332   1.272       .  A
C332        C884   1.491       .  S
C337        C338   1.407       .  A
C337        C342   1.409       .  A
C337        C874   1.487       .  S
C338        C339   1.407       .  A
C338        H343   1.083       .  S
C339        C340   1.398       .  A
C339        C937   1.486       .  S
C340        C341   1.398       .  A
C340        H344   1.084       .  S
C341        C342   1.407       .  A
C341        C864   1.475       .  S
C342        H345   1.083       .  S
C346        C347   1.412       .  A
C346        C351   1.408       .  A
C346        C854   1.494       .  S
C347        C348   1.408       .  A
C347        H352   1.083       .  S
C348        C349   1.398       .  A
C348       C1247   1.472       .  S
C349        C350   1.395       .  A
C349        H353   1.084       .  S
C350        C351   1.402       .  A
C350        C917   1.482       .  S
C351        H354   1.084       .  S
C355        C356   1.409       .  A
C355        C360   1.410       .  A
C355        C844   1.488       .  S
C356        C357   1.403       .  A
C356        H361   1.084       .  S
C357        C358   1.396       .  A
C357        C897   1.485       .  S
C358        C359   1.400       .  A
C358        H362   1.084       .  S
C359        C360   1.409       .  A
C359       C1377   1.478       .  S
C360        H363   1.083       .  S
O364       Mg366   2.114   1_655  S
O364       Mg372   2.125       .  S
O364        C399   1.236       .  S
C365        H404   1.081       .  S
C365        O378   1.240       .  S
C365        O402   1.275   1_554  A
Mg366       O395   2.128       .  S
Mg366       O410   2.288       .  S
Mg366       O406   2.205       .  S
Mg366       O377   2.299       .  S
O367       Mg409   2.140   1_554  S
O367       Mg392   2.096       .  S
O367        C388   1.234       .  S
O368        C399   1.270       .  A
O368       Mg392   2.297       .  S
C369       C1117   1.489   1_554  S
C369        O371   1.277       .  A
C369        O383   1.269   1_554  A
O370        C398   1.276       .  A
O370       Mg372   2.322   1_455  S
O371       Mg403   2.328       .  S
Mg372       O378   2.161       .  S
Mg372       O386   2.305       .  S
Mg372       O374   2.338       .  S
C373        C814   1.479       .  S
C373        O411   1.266       .  A
C373        O379   1.281       .  A
O374        C381   1.278       .  A
H375        C388   1.081       .  S
C376        H401   1.081       .  S
C376        O390   1.241   1_455  S
C376        O391   1.277       .  A
O377        C400   1.270       .  A
O378       Mg392   2.138       .  S
O379       Mg409   2.354       .  S
C380        C847   1.498       .  S
C380        O393   1.278       .  A
C380        O385   1.269       .  A
C381        C827   1.473       .  S
C381        O408   1.265       .  A
Mg382       O389   2.107   1_655  S
Mg382       O390   2.144   1_554  S
Mg382       O383   2.255   1_654  S
Mg382       O384   2.283       .  S
Mg382       O411   2.200   1_554  S
O384        C388   1.267       .  A
O385       Mg392   2.257   1_556  S
O386        C405   1.274   1_655  A
O387        C407   1.281       .  A
O387       Mg403   2.368       .  S
O389       Mg403   2.132       .  S
O389        C400   1.236       .  S
O390       Mg409   2.167       .  S
O391       Mg403   2.319   1_556  S
Mg392       O408   2.204       .  S
O393       Mg409   2.332       .  S
H394        C399   1.081       .  S
O395       Mg403   2.166       .  S
O395        C398   1.240       .  S
H396        C398   1.081       .  S
H397        C400   1.081   1_655  S
O402       Mg409   2.315       .  S
C405       C1004   1.480       .  S
C405        O410   1.271       .  A
O406        C407   1.265       .  A
C407        C837   1.485       .  S
C412        C413   1.406       .  A
C412        C417   1.403       .  A
C412        C887   1.477       .  S
C413        C414   1.407       .  A
C413        H418   1.083       .  S
C414        C415   1.401       .  A
C414       C1307   1.479       .  S
C415        C416   1.394       .  A
C415        H419   1.084       .  S
C416        C417   1.403       .  A
C416        C824   1.477       .  S
C417        H420   1.084       .  S
C421        C422   1.407       .  A
C421        C426   1.407       .  A
C421       C1044   1.485       .  S
C422        C423   1.404       .  A
C422        H427   1.084       .  S
C423        C424   1.398       .  A
C423       C1294   1.469       .  S
C424        C425   1.396       .  A
C424        H428   1.085       .  S
C425        C426   1.408       .  A
C425        C834   1.482       .  S
C426        H429   1.084       .  S
C430        C431   1.408       .  A
C430        C435   1.407       .  A
C430       C1147   1.487       .  S
C431        C432   1.403       .  A
C431        H436   1.084       .  S
C432        C433   1.398       .  A
C432       C1227   1.469       .  S
C433        C434   1.396       .  A
C433        H437   1.085       .  S
C434        C435   1.406       .  A
C434        C817   1.482       .  S
C435        H438   1.084       .  S
O439       Mg441   2.139       .  S
O439       Mg447   2.160       .  S
O439        C474   1.240       .  S
C440        H479   1.081       .  S
C440        O453   1.236       .  S
C440        O477   1.270       .  A
Mg441       O470   2.130   1_554  S
Mg441       O485   2.285       .  S
Mg441       O481   2.243       .  S
Mg441       O452   2.302       .  S
O442       Mg484   2.153       .  S
O442       Mg467   2.138   1_556  S
O442        C463   1.239       .  S
O443        C474   1.273   1_565  A
O443       Mg467   2.298       .  S
C444        C794   1.486       .  S
C444        O446   1.274       .  A
C444        O458   1.273       .  A
O445        C473   1.269       .  A
O445       Mg447   2.298   1_556  S
O446       Mg478   2.272       .  S
Mg447       O453   2.119   1_554  S
Mg447       O461   2.264       .  S
Mg447       O449   2.331       .  S
C448        C784   1.492       .  S
C448        O486   1.270       .  A
C448        O454   1.280       .  A
O449        C456   1.278   1_545  A
H450        C463   1.081       .  S
C451        H476   1.081       .  S
C451        O465   1.237       .  S
C451        O466   1.271       .  A
O452        C475   1.273       .  A
O453       Mg467   2.133   1_546  S
O454       Mg484   2.346       .  S
C455        C774   1.466       .  S
C455        O468   1.274       .  A
C455        O460   1.271       .  A
C456       C1084   1.487       .  S
C456        O483   1.270       .  A
Mg457       O464   2.137       .  S
Mg457       O465   2.134       .  S
Mg457       O458   2.287       .  S
Mg457       O459   2.297   1_545  S
Mg457       O486   2.233   1_545  S
O459        C463   1.272       .  A
O460       Mg467   2.276   1_556  S
O461        C480   1.273       .  A
O462        C482   1.278       .  A
O462       Mg478   2.344   1_554  S
O464       Mg478   2.148       .  S
O464        C475   1.239   1_556  S
O465       Mg484   2.132   1_545  S
O466       Mg478   2.303       .  S
Mg467       O483   2.248       .  S
O468       Mg484   2.284       .  S
H469        C474   1.081       .  S
O470       Mg478   2.125       .  S
O470        C473   1.236       .  S
H471        C473   1.081       .  S
H472        C475   1.081       .  S
O477       Mg484   2.300   1_545  S
C480        C807   1.479       .  S
C480        O485   1.273       .  A
O481        C482   1.270       .  A
C482        C857   1.475       .  S
C487        C488   1.410       .  A
C487        C492   1.408       .  A
C487        C767   1.488       .  S
C488        C489   1.403       .  A
C488        H493   1.083       .  S
C489        C490   1.397       .  A
C489       C1217   1.471       .  S
C490        C491   1.397       .  A
C490        H494   1.085       .  S
C491        C492   1.405       .  A
C491        C797   1.480       .  S
C492        H495   1.084       .  S
C496        C497   1.405       .  A
C496        C501   1.404       .  A
C496        C907   1.473       .  S
C497        C498   1.403       .  A
C497        H502   1.084       .  S
C498        C499   1.398       .  A
C498       C1277   1.469       .  S
C499        C500   1.397       .  A
C499        H503   1.085       .  S
C500        C501   1.403       .  A
C500        C804   1.474       .  S
C501        H504   1.084       .  S
C505        C506   1.405       .  A
C505        C510   1.402       .  A
C505       C1124   1.479       .  S
C506        C507   1.410       .  A
C506        H511   1.083       .  S
C507        C508   1.403       .  A
C507       C1197   1.486       .  S
C508        C509   1.400       .  A
C508        H512   1.082       .  S
C509        C510   1.406       .  A
C509        C777   1.489       .  S
C510        H513   1.083       .  S
O514       Mg516   2.112       .  S
O514       Mg522   2.126       .  S
O514        C549   1.235       .  S
C515        H554   1.081       .  S
C515        O528   1.241       .  S
C515        O552   1.276       .  A
Mg516       O545   2.129       .  S
Mg516       O560   2.307       .  S
Mg516       O556   2.227       .  S
Mg516       O527   2.311       .  S
O517       Mg559   2.131       .  S
O517       Mg542   2.095       .  S
O517        C538   1.236       .  S
O518        C549   1.268       .  A
O518       Mg542   2.292       .  S
C519        C877   1.484       .  S
C519        O521   1.275       .  A
C519        O533   1.273       .  A
O520        C548   1.276       .  A
O520       Mg522   2.321       .  S
O521       Mg553   2.303       .  S
Mg522       O528   2.155       .  S
Mg522       O536   2.291       .  S
Mg522       O524   2.359       .  S
C523        C727   1.465       .  S
C523        O561   1.268       .  A
C523        O529   1.276       .  A
O524        C531   1.280       .  A
H525        C538   1.081       .  S
C526        H551   1.081       .  S
C526        O540   1.240       .  S
C526        O541   1.276       .  A
O527        C550   1.273       .  A
O528       Mg542   2.137       .  S
O529       Mg559   2.327       .  S
C530        C734   1.492       .  S
C530        O543   1.274       .  A
C530        O535   1.268       .  A
C531        C747   1.477       .  S
C531        O558   1.264       .  A
Mg532       O539   2.123       .  S
Mg532       O540   2.132       .  S
Mg532       O533   2.299       .  S
Mg532       O534   2.298       .  S
Mg532       O561   2.235       .  S
O534        C538   1.269       .  A
O535       Mg542   2.256       .  S
O536        C555   1.275       .  A
O537        C557   1.276       .  A
O537       Mg553   2.335       .  S
O539       Mg553   2.122       .  S
O539        C550   1.238       .  S
O540       Mg559   2.159       .  S
O541       Mg553   2.319       .  S
Mg542       O558   2.194       .  S
O543       Mg559   2.313       .  S
H544        C549   1.081       .  S
O545       Mg553   2.168       .  S
O545        C548   1.240       .  S
H546        C548   1.081       .  S
H547        C550   1.081       .  S
O552       Mg559   2.313       .  S
C555       C1017   1.484       .  S
C555        O560   1.274       .  A
O556        C557   1.266       .  A
C557        C754   1.462       .  S
C562        C563   1.408       .  A
C562        C567   1.407       .  A
C562        C714   1.486       .  S
C563        C564   1.402       .  A
C563        H568   1.084       .  S
C564        C565   1.398       .  A
C564       C1327   1.468       .  S
C565        C566   1.395       .  A
C565        H569   1.085       .  S
C566        C567   1.406       .  A
C566        C744   1.479       .  S
C567        H570   1.084       .  S
C571        C572   1.413       .  A
C571        C576   1.405       .  A
C571        C924   1.485       .  S
C572        C573   1.415       .  A
C572        H577   1.082       .  S
C573        C574   1.407       .  A
C573       C1207   1.497       .  S
C574        C575   1.388       .  A
C574        H578   1.083       .  S
C575        C576   1.394       .  A
C575        C724   1.469       .  S
C576        H579   1.084       .  S
C580        C581   1.410       .  A
C580        C585   1.409       .  A
C580       C1067   1.489       .  S
C581        C582   1.408       .  A
C581        H586   1.083       .  S
C582        C583   1.398       .  A
C582       C1237   1.472       .  S
C583        C584   1.392       .  A
C583        H587   1.085       .  S
C584        C585   1.402       .  A
C584        C757   1.476       .  S
C585        H588   1.084       .  S
O589       Mg591   2.141       .  S
O589       Mg597   2.150       .  S
O589        C624   1.240   1_565  S
C590        H629   1.081       .  S
C590        O603   1.237       .  S
C590        O627   1.271       .  A
Mg591       O620   2.133       .  S
Mg591       O635   2.294       .  S
Mg591       O631   2.251       .  S
Mg591       O602   2.300       .  S
O592       Mg634   2.151       .  S
O592       Mg617   2.137       .  S
O592        C613   1.239       .  S
O593        C624   1.274       .  A
O593       Mg617   2.300       .  S
C594        C684   1.489       .  S
C594        O596   1.274       .  A
C594        O608   1.273       .  A
O595        C623   1.271       .  A
O595       Mg597   2.304       .  S
O596       Mg628   2.271       .  S
Mg597       O603   2.123       .  S
Mg597       O611   2.273       .  S
Mg597       O599   2.341   1_565  S
C598        C764   1.488       .  S
C598        O636   1.271       .  A
C598        O604   1.279       .  A
O599        C606   1.279       .  A
H600        C613   1.081       .  S
C601        H626   1.081       .  S
C601        O615   1.236       .  S
C601        O616   1.270       .  A
O602        C625   1.274       .  A
O603       Mg617   2.129   1_565  S
O604       Mg634   2.336       .  S
C605        C694   1.463       .  S
C605        O618   1.273       .  A
C605        O610   1.271       .  A
C606        C947   1.494       .  S
C606        O633   1.270       .  A
Mg607       O614   2.138   1_545  S
Mg607       O615   2.136   1_545  S
Mg607       O608   2.286   1_545  S
Mg607       O609   2.296       .  S
Mg607       O636   2.248       .  S
O609        C613   1.272       .  A
O610       Mg617   2.281       .  S
O611        C630   1.272       .  A
O612        C632   1.277       .  A
O612       Mg628   2.327       .  S
O614       Mg628   2.155       .  S
O614        C625   1.240       .  S
O615       Mg634   2.120   1_565  S
O616       Mg628   2.296       .  S
Mg617       O633   2.242       .  S
O618       Mg634   2.274       .  S
H619        C624   1.081       .  S
O620       Mg628   2.126       .  S
O620        C623   1.237       .  S
H621        C623   1.081       .  S
H622        C625   1.081       .  S
O627       Mg634   2.303   1_565  S
C630        C704   1.465       .  S
C630        O635   1.273       .  A
O631        C632   1.271       .  A
C632        C717   1.487       .  S
C637        C638   1.408       .  A
C637        C642   1.408       .  A
C637        C737   1.487       .  S
C638        C639   1.406       .  A
C638        H643   1.083       .  S
C639        C640   1.400       .  A
C639       C1354   1.472       .  S
C640        C641   1.398       .  A
C640        H644   1.084       .  S
C641        C642   1.404       .  A
C641        C707   1.487       .  S
C642        H645   1.083       .  S
C646        C647   1.406       .  A
C646        C651   1.406       .  A
C646        C977   1.481       .  S
C647        C648   1.409       .  A
C647        H652   1.083       .  S
C648        C649   1.400       .  A
C648        C697   1.490       .  S
C649        C650   1.397       .  A
C649        H653   1.084       .  S
C650        C651   1.403       .  A
C650        C674   1.473       .  S
C651        H654   1.084       .  S
C655        C656   1.405       .  A
C655        C660   1.404       .  A
C655        C787   1.475       .  S
C656        C657   1.404       .  A
C656        H661   1.084       .  S
C657        C658   1.400       .  A
C657       C1387   1.472       .  S
C658        C659   1.401       .  A
C658        H662   1.084       .  S
C659        C660   1.406       .  A
C659        C687   1.486       .  S
C660        H663   1.084       .  S
C664        C665   1.400       .  A
C664        C669   1.400       .  A
C664        C677   1.484       .  S
C665        C666   1.413       .  A
C665        H670   1.080       .  S
C666        C667   1.413       .  A
C666       C1107   1.510       .  S
C667        C668   1.406       .  A
C667        H671   1.080       .  S
C668        C669   1.397       .  A
C668        C867   1.474       .  S
C669        H672   1.084       .  S
C673        C674   1.405       .  A
C673        C678   1.396       .  A
C673        F680   1.358       .  S
C674        C675   1.401       .  A
C675        C676   1.400       .  A
C675        F682   1.358       .  S
C676        C677   1.412       .  A
C676        F681   1.358       .  S
C677        C678   1.405       .  A
C678        F679   1.358       .  S
C683        C684   1.413       .  A
C683        C688   1.397       .  A
C683        F690   1.358       .  S
C684        C685   1.411       .  A
C685        C686   1.399       .  A
C685        F692   1.358       .  S
C686        C687   1.408       .  A
C686        F691   1.358       .  S
C687        C688   1.406       .  A
C688        F689   1.358       .  S
C693        C694   1.403       .  A
C693        C698   1.395       .  A
C693        F700   1.358       .  S
C694        C695   1.397       .  A
C695        C696   1.400       .  A
C695        F702   1.358       .  S
C696        C697   1.417       .  A
C696        F701   1.358       .  S
C697        C698   1.408       .  A
C698        F699   1.358       .  S
C703        C704   1.399       .  A
C703        C708   1.402       .  A
C703        F710   1.357       .  S
C704        C705   1.403       .  A
C705        C706   1.394       .  A
C705        F712   1.358       .  S
C706        C707   1.407       .  A
C706        F711   1.358       .  S
C707        C708   1.415       .  A
C708        F709   1.358       .  S
C713        C714   1.405       .  A
C713        C718   1.397       .  A
C713        F720   1.358       .  S
C714        C715   1.408       .  A
C715        C716   1.403       .  A
C715        F722   1.358       .  S
C716        C717   1.409       .  A
C716        F721   1.358       .  S
C717        C718   1.410       .  A
C718        F719   1.358       .  S
C723        C724   1.405       .  A
C723        C728   1.394       .  A
C723        F730   1.358       .  S
C724        C725   1.400       .  A
C725        C726   1.401       .  A
C725        F732   1.357       .  S
C726        C727   1.409       .  A
C726        F731   1.358       .  S
C727        C728   1.401       .  A
C728        F729   1.358       .  S
C733        C734   1.413       .  A
C733        C738   1.392       .  A
C733        F740   1.358       .  S
C734        C735   1.410       .  A
C735        C736   1.409       .  A
C735        F742   1.357       .  S
C736        C737   1.409       .  A
C736        F741   1.357       .  S
C737        C738   1.403       .  A
C738        F739   1.359       .  S
C743        C744   1.402       .  A
C743        C748   1.393       .  A
C743        F750   1.358       .  S
C744        C745   1.408       .  A
C745        C746   1.403       .  A
C745        F752   1.358       .  S
C746        C747   1.406       .  A
C746        F751   1.358       .  S
C747        C748   1.410       .  A
C748        F749   1.359       .  S
C753        C754   1.405       .  A
C753        C758   1.395       .  A
C753        F760   1.358       .  S
C754        C755   1.400       .  A
C755        C756   1.400       .  A
C755        F762   1.357       .  S
C756        C757   1.409       .  A
C756        F761   1.358       .  S
C757        C758   1.402       .  A
C758        F759   1.358       .  S
C763        C764   1.409       .  A
C763        C768   1.403       .  A
C763        F770   1.358       .  S
C764        C765   1.411       .  A
C765        C766   1.398       .  A
C765        F772   1.358       .  S
C766        C767   1.406       .  A
C766        F771   1.358       .  S
C767        C768   1.409       .  A
C768        F769   1.358       .  S
C773        C774   1.404       .  A
C773        C778   1.393       .  A
C773        F780   1.358   1_565  S
C774        C775   1.399       .  A
C775        C776   1.401       .  A
C775        F782   1.357       .  S
C776        C777   1.416       .  A
C776        F781   1.358       .  S
C777        C778   1.407       .  A
C778        F779   1.358       .  S
C783        C784   1.414       .  A
C783        C788   1.393       .  A
C783        F790   1.358       .  S
C784        C785   1.412       .  A
C785        C786   1.407       .  A
C785        F792   1.357       .  S
C786        C787   1.405       .  A
C786        F791   1.357       .  S
C787        C788   1.398       .  A
C788        F789   1.359       .  S
C793        C794   1.412       .  A
C793        C798   1.398       .  A
C793        F800   1.357       .  S
C794        C795   1.410       .  A
C795        C796   1.399       .  A
C795        F802   1.358       .  S
C796        C797   1.405       .  A
C796        F801   1.358       .  S
C797        C798   1.404       .  A
C798        F799   1.358       .  S
C803        C804   1.403       .  A
C803        C808   1.398       .  A
C803        F810   1.358       .  S
C804        C805   1.403       .  A
C805        C806   1.397       .  A
C805        F812   1.358       .  S
C806        C807   1.409       .  A
C806        F811   1.358       .  S
C807        C808   1.410       .  A
C808        F809   1.358       .  S
C813        C814   1.406       .  A
C813        C818   1.402       .  A
C813        F820   1.358       .  S
C814        C815   1.411       .  A
C815        C816   1.392       .  A
C815        F822   1.359       .  S
C816        C817   1.403       .  A
C816        F821   1.358       .  S
C817        C818   1.409       .  A
C818        F819   1.358       .  S
C823        C824   1.403       .  A
C823        C828   1.393       .  A
C823        F830   1.358       .  S
C824        C825   1.408       .  A
C825        C826   1.399       .  A
C825        F832   1.358       .  S
C826        C827   1.405       .  A
C826        F831   1.358       .  S
C827        C828   1.409       .  A
C828        F829   1.358       .  S
C833        C834   1.402       .  A
C833        C838   1.393       .  A
C833        F840   1.358       .  S
C834        C835   1.409       .  A
C835        C836   1.404       .  A
C835        F842   1.358       .  S
C836        C837   1.408       .  A
C836        F841   1.358       .  S
C837        C838   1.413       .  A
C838        F839   1.359       .  S
C843        C844   1.409       .  A
C843        C848   1.411       .  A
C843        F850   1.357       .  S
C844        C845   1.402       .  A
C845        C846   1.393       .  A
C845        F852   1.359       .  S
C846        C847   1.416       .  A
C846        F851   1.358       .  S
C847        C848   1.412       .  A
C848        F849   1.357       .  S
C853        C854   1.412       .  A
C853        C858   1.408       .  A
C853        F860   1.357       .  S
C854        C855   1.411       .  A
C855        C856   1.393       .  A
C855        F862   1.358       .  S
C856        C857   1.401       .  A
C856        F861   1.359       .  S
C857        C858   1.406       .  A
C858        F859   1.357       .  S
C863        C864   1.403       .  A
C863        C868   1.398       .  A
C863        F870   1.358       .  S
C864        C865   1.407       .  A
C865        C866   1.401       .  A
C865        F872   1.358       .  S
C866        C867   1.403       .  A
C866        F871   1.358       .  S
C867        C868   1.404       .  A
C868        F869   1.358       .  S
C873        C874   1.409       .  A
C873        C878   1.403       .  A
C873        F880   1.358       .  S
C874        C875   1.405       .  A
C875        C876   1.403       .  A
C875        F882   1.358       .  S
C876        C877   1.409       .  A
C876        F881   1.358       .  S
C877        C878   1.406       .  A
C878        F879   1.358       .  S
C883        C884   1.412       .  A
C883        C888   1.402       .  A
C883        F890   1.358       .  S
C884        C885   1.413       .  A
C885        C886   1.398       .  A
C885        F892   1.358       .  S
C886        C887   1.401       .  A
C886        F891   1.358       .  S
C887        C888   1.404       .  A
C888        F889   1.358       .  S
C893        C894   1.410       .  A
C893        C898   1.399       .  A
C893        F900   1.358       .  S
C894        C895   1.413       .  A
C895        C896   1.398       .  A
C895        F902   1.358       .  S
C896        C897   1.405       .  A
C896        F901   1.358       .  S
C897        C898   1.407       .  A
C898        F899   1.358       .  S
C903        C904   1.413       .  A
C903        C908   1.404       .  A
C903        F910   1.357       .  S
C904        C905   1.416       .  A
C905        C906   1.395       .  A
C905        F912   1.358       .  S
C906        C907   1.398       .  A
C906        F911   1.358       .  S
C907        C908   1.403       .  A
C908        F909   1.358       .  S
C913        C914   1.412       .  A
C913        C918   1.393       .  A
C913        F920   1.358       .  S
C914        C915   1.411       .  A
C915        C916   1.400       .  A
C915        F922   1.358       .  S
C916        C917   1.406       .  A
C916        F921   1.358       .  S
C917        C918   1.404       .  A
C918        F919   1.358       .  S
C923        C924   1.407       .  A
C923        C928   1.394       .  A
C923        F930   1.358       .  S
C924        C925   1.409       .  A
C925        C926   1.407       .  A
C925        F932   1.357       .  S
C926        C927   1.406       .  A
C926        F931   1.357       .  S
C927        C928   1.405       .  A
C928        F929   1.359       .  S
C933        C934   1.403       .  A
C933        C938   1.395       .  A
C933        F940   1.358       .  S
C934        C935   1.399       .  A
C935        C936   1.401       .  A
C935        F942   1.357       .  S
C936        C937   1.415       .  A
C936        F941   1.358       .  S
C937        C938   1.406       .  A
C938        F939   1.358       .  S
C943        C944   1.401       .  A
C943        C948   1.397       .  A
C943        F950   1.358       .  S
C944        C945   1.405       .  A
C945        C946   1.405       .  A
C945        F952   1.358       .  S
C946        C947   1.412       .  A
C946        F951   1.357   1_545  S
C947        C948   1.415       .  A
C948        F949   1.358       .  S
C953        C954   1.409       .  A
C953        C958   1.392       .  A
C953        F960   1.359       .  S
C954        C955   1.406       .  A
C955        C956   1.400       .  A
C955        F962   1.358       .  S
C956        C957   1.409       .  A
C956        F961   1.358       .  S
C957        C958   1.404       .  A
C958        F959   1.358       .  S
C963        C964   1.408       .  A
C963        C968   1.402       .  A
C963        F970   1.358       .  S
C964        C965   1.407       .  A
C965        C966   1.393       .  A
C965        F972   1.358       .  S
C966        C967   1.401       .  A
C966        F971   1.358       .  S
C967        C968   1.404       .  A
C968        F969   1.358       .  S
C973        C974   1.411       .  A
C973        C978   1.398       .  A
C973        F980   1.358       .  S
C974        C975   1.407       .  A
C975        C976   1.404       .  A
C975        F982   1.358   1_545  S
C976        C977   1.407       .  A
C976        F981   1.358       .  S
C977        C978   1.402       .  A
C978        F979   1.358       .  S
C983        C984   1.405       .  A
C983        C988   1.396       .  A
C983        F990   1.358       .  S
C984        C985   1.402       .  A
C985        C986   1.399       .  A
C985        F992   1.358       .  S
C986        C987   1.405       .  A
C986        F991   1.358       .  S
C987        C988   1.401       .  A
C988        F989   1.358       .  S
C993        C994   1.410       .  A
C993        C998   1.403       .  A
C993       F1000   1.358       .  S
C994        C995   1.407       .  A
C995        C996   1.401       .  A
C995       F1002   1.358       .  S
C996        C997   1.406       .  A
C996       F1001   1.358       .  S
C997        C998   1.405       .  A
C998        F999   1.358       .  S
C1003      C1004   1.405       .  A
C1003      C1008   1.403       .  A
C1003      F1010   1.358   1_455  S
C1004      C1005   1.407       .  A
C1005      C1006   1.401       .  A
C1005      F1012   1.358       .  S
C1006      C1007   1.407       .  A
C1006      F1011   1.358       .  S
C1007      C1008   1.410       .  A
C1008      F1009   1.358       .  S
C1013      C1014   1.406       .  A
C1013      C1018   1.404       .  A
C1013      F1020   1.357       .  S
C1014      C1015   1.410       .  A
C1015      C1016   1.400       .  A
C1015      F1022   1.358       .  S
C1016      C1017   1.405       .  A
C1016      F1021   1.358       .  S
C1017      C1018   1.410       .  A
C1018      F1019   1.358       .  S
C1023      C1024   1.412       .  A
C1023      C1028   1.393       .  A
C1023      F1030   1.359       .  S
C1024      C1025   1.410       .  A
C1025      C1026   1.410       .  A
C1025      F1032   1.357       .  S
C1026      C1027   1.410       .  A
C1026      F1031   1.357       .  S
C1027      C1028   1.404       .  A
C1028      F1029   1.359       .  S
C1033      C1034   1.404       .  A
C1033      C1038   1.394       .  A
C1033      F1040   1.358       .  S
C1034      C1035   1.402       .  A
C1035      C1036   1.402       .  A
C1035      F1042   1.357       .  S
C1036      C1037   1.410       .  A
C1036      F1041   1.358       .  S
C1037      C1038   1.402       .  A
C1038      F1039   1.358       .  S
C1043      C1044   1.407       .  A
C1043      C1048   1.404       .  A
C1043      F1050   1.358       .  S
C1044      C1045   1.405       .  A
C1045      C1046   1.400       .  A
C1045      F1052   1.358       .  S
C1046      C1047   1.409       .  A
C1046      F1051   1.358       .  S
C1047      C1048   1.408       .  A
C1048      F1049   1.358   1_455  S
C1053      C1054   1.399       .  A
C1053      C1058   1.403       .  A
C1053      F1060   1.357       .  S
C1054      C1055   1.404       .  A
C1055      C1056   1.393       .  A
C1055      F1062   1.358       .  S
C1056      C1057   1.406       .  A
C1056      F1061   1.358       .  S
C1057      C1058   1.416       .  A
C1058      F1059   1.357       .  S
C1063      C1064   1.415       .  A
C1063      C1068   1.394       .  A
C1063      F1070   1.359       .  S
C1064      C1065   1.411       .  A
C1065      C1066   1.410       .  A
C1065      F1072   1.357       .  S
C1066      C1067   1.409       .  A
C1066      F1071   1.357       .  S
C1067      C1068   1.403       .  A
C1068      F1069   1.359       .  S
C1073      C1074   1.406       .  A
C1073      C1078   1.392       .  A
C1073      F1080   1.359       .  S
C1074      C1075   1.407       .  A
C1075      C1076   1.402       .  A
C1075      F1082   1.358       .  S
C1076      C1077   1.406       .  A
C1076      F1081   1.357       .  S
C1077      C1078   1.404       .  A
C1078      F1079   1.358       .  S
C1083      C1084   1.410       .  A
C1083      C1088   1.398       .  A
C1083      F1090   1.358       .  S
C1084      C1085   1.408       .  A
C1085      C1086   1.403       .  A
C1085      F1092   1.358   1_565  S
C1086      C1087   1.409       .  A
C1086      F1091   1.358   1_565  S
C1087      C1088   1.406       .  A
C1088      F1089   1.358       .  S
C1093      C1094   1.406       .  A
C1093      C1098   1.391       .  A
C1093      F1100   1.359       .  S
C1094      C1095   1.412       .  A
C1095      C1096   1.411       .  A
C1095      F1102   1.357       .  S
C1096      C1097   1.409       .  A
C1096      F1101   1.357       .  S
C1097      C1098   1.410       .  A
C1098      F1099   1.359       .  S
C1103      C1104   1.411       .  A
C1103      C1108   1.388       .  A
C1103      F1110   1.359       .  S
C1104      C1105   1.409       .  A
C1105      C1106   1.409       .  A
C1105      F1112   1.357       .  S
C1106      C1107   1.419       .  A
C1106      F1111   1.356       .  S
C1107      C1108   1.413       .  A
C1108      F1109   1.357       .  S
C1113      C1114   1.412       .  A
C1113      C1118   1.412       .  A
C1113      F1120   1.357       .  S
C1114      C1115   1.406       .  A
C1115      C1116   1.392       .  A
C1115      F1122   1.358       .  S
C1116      C1117   1.410       .  A
C1116      F1121   1.359       .  S
C1117      C1118   1.408       .  A
C1118      F1119   1.357       .  S
C1123      C1124   1.399       .  A
C1123      C1128   1.397       .  A
C1123      F1130   1.358       .  S
C1124      C1125   1.405       .  A
C1125      C1126   1.406       .  A
C1125      F1132   1.357       .  S
C1126      C1127   1.413       .  A
C1126      F1131   1.357   1_565  S
C1127      C1128   1.417       .  A
C1128      F1129   1.358       .  S
C1133      C1134   1.413       .  A
C1133      C1138   1.398       .  A
C1133      F1140   1.358       .  S
C1134      C1135   1.410       .  A
C1135      C1136   1.397       .  A
C1135      F1142   1.358       .  S
C1136      C1137   1.406       .  A
C1136      F1141   1.358       .  S
C1137      C1138   1.404       .  A
C1138      F1139   1.358       .  S
C1143      C1144   1.410   1_554  A
C1143      C1148   1.403   1_554  A
C1143      F1150   1.358       .  S
C1144      C1145   1.410       .  A
C1145      C1146   1.398       .  A
C1145      F1152   1.358       .  S
C1146      C1147   1.406       .  A
C1146      F1151   1.358       .  S
C1147      C1148   1.408       .  A
C1148      F1149   1.358   1_556  S
C1153      C1154   1.406       .  A
C1153      C1158   1.401       .  A
C1153      F1160   1.358       .  S
C1154      C1155   1.406       .  A
C1155      C1156   1.396       .  A
C1155      F1162   1.358       .  S
C1156      C1157   1.411       .  A
C1156      F1161   1.358       .  S
C1157      C1158   1.411       .  A
C1158      F1159   1.358       .  S
C1163      C1164   1.406       .  A
C1163      C1168   1.408       .  A
C1163      F1170   1.357       .  S
C1164      C1165   1.403       .  A
C1165      C1166   1.393       .  A
C1165      F1172   1.359       .  S
C1166      C1167   1.410       .  A
C1166      F1171   1.358       .  S
C1167      C1168   1.411       .  A
C1168      F1169   1.357   1_655  S
C1173      C1174   1.407       .  A
C1173      C1178   1.399       .  A
C1173      F1180   1.358       .  S
C1174      C1175   1.409       .  A
C1175      C1176   1.397       .  A
C1175      F1182   1.358       .  S
C1176      C1177   1.401       .  A
C1176      F1181   1.358       .  S
C1177      C1178   1.403       .  A
C1178      F1179   1.358       .  S
C1183      C1184   1.404       .  A
C1183      C1188   1.397       .  A
C1183      F1190   1.358       .  S
C1184      C1185   1.412       .  A
C1185      C1186   1.398       .  A
C1185      F1192   1.358       .  S
C1186      C1187   1.400       .  A
C1186      F1191   1.358       .  S
C1187      C1188   1.406       .  A
C1188      F1189   1.358       .  S
C1193      C1194   1.403       .  A
C1193      C1198   1.398       .  A
C1193      F1200   1.358       .  S
C1194      C1195   1.402       .  A
C1195      C1196   1.400       .  A
C1195      F1202   1.358       .  S
C1196      C1197   1.412       .  A
C1196      F1201   1.358       .  S
C1197      C1198   1.408       .  A
C1198      F1199   1.358       .  S
C1203      C1204   1.417       .  A
C1203      C1208   1.409       .  A
C1203      F1210   1.356       .  S
C1204      C1205   1.411       .  A
C1205      C1206   1.386       .  A
C1205      F1212   1.357       .  S
C1206      C1207   1.410       .  A
C1206      F1211   1.359       .  S
C1207      C1208   1.409       .  A
C1208      F1209   1.357       .  S
C1213      C1214   1.406       .  A
C1213      C1218   1.396       .  A
C1213      F1220   1.358       .  S
C1214      C1215   1.408       .  A
C1215      C1216   1.401       .  A
C1215      F1222   1.358       .  S
C1216      C1217   1.403       .  A
C1216      F1221   1.358       .  S
C1217      C1218   1.403       .  A
C1218      F1219   1.358       .  S
C1223      C1224   1.409       .  A
C1223      C1228   1.401       .  A
C1223      F1230   1.358       .  S
C1224      C1225   1.406       .  A
C1225      C1226   1.394       .  A
C1225      F1232   1.358       .  S
C1226      C1227   1.402       .  A
C1226      F1231   1.358       .  S
C1227      C1228   1.402       .  A
C1228      F1229   1.358       .  S
C1233      C1234   1.404       .  A
C1233      C1238   1.399       .  A
C1233      F1240   1.358       .  S
C1234      C1235   1.404       .  A
C1235      C1236   1.398       .  A
C1235      F1242   1.358       .  S
C1236      C1237   1.405       .  A
C1236      F1241   1.358       .  S
C1237      C1238   1.404       .  A
C1238      F1239   1.358       .  S
C1243      C1244   1.407       .  A
C1243      C1248   1.401       .  A
C1243      F1250   1.358       .  S
C1244      C1245   1.406       .  A
C1245      C1246   1.398       .  A
C1245      F1252   1.358       .  S
C1246      C1247   1.403       .  A
C1246      F1251   1.358       .  S
C1247      C1248   1.404       .  A
C1248      F1249   1.358       .  S
C1253      C1254   1.409       .  A
C1253      C1258   1.393       .  A
C1253      F1260   1.359       .  S
C1254      C1255   1.409       .  A
C1255      C1256   1.404       .  A
C1255      F1262   1.357       .  S
C1256      C1257   1.404       .  A
C1256      F1261   1.357       .  S
C1257      C1258   1.402       .  A
C1258      F1259   1.359       .  S
C1263      C1264   1.412       .  A
C1263      C1268   1.408       .  A
C1263      F1270   1.356       .  S
C1264      C1265   1.414       .  A
C1265      C1266   1.388       .  A
C1265      F1272   1.358       .  S
C1266      C1267   1.410       .  A
C1266      F1271   1.358       .  S
C1267      C1268   1.417       .  A
C1268      F1269   1.356       .  S
C1273      C1274   1.404       .  A
C1273      C1278   1.397       .  A
C1273      F1280   1.358       .  S
C1274      C1275   1.406       .  A
C1275      C1276   1.399       .  A
C1275      F1282   1.358       .  S
C1276      C1277   1.403       .  A
C1276      F1281   1.358       .  S
C1277      C1278   1.403       .  A
C1278      F1279   1.358       .  S
C1283      C1284   1.400       .  A
C1283      C1288   1.394       .  A
C1283      F1290   1.358       .  S
C1284      C1285   1.403       .  A
C1285      C1286   1.401       .  A
C1285      F1292   1.358       .  S
C1286      C1287   1.408       .  A
C1286      F1291   1.357       .  S
C1287      C1288   1.410       .  A
C1288      F1289   1.358       .  S
C1293      C1294   1.403       .  A
C1293      C1298   1.396       .  A
C1293      F1300   1.358       .  S
C1294      C1295   1.403       .  A
C1295      C1296   1.400       .  A
C1295      F1302   1.358       .  S
C1296      C1297   1.408       .  A
C1296      F1301   1.358       .  S
C1297      C1298   1.406       .  A
C1298      F1299   1.358       .  S
C1303      C1304   1.400       .  A
C1303      C1308   1.394       .  A
C1303      F1310   1.358       .  S
C1304      C1305   1.403       .  A
C1305      C1306   1.399       .  A
C1305      F1312   1.358       .  S
C1306      C1307   1.408       .  A
C1306      F1311   1.358       .  S
C1307      C1308   1.409       .  A
C1308      F1309   1.358       .  S
C1313      C1314   1.400       .  A
C1313      C1318   1.395       .  A
C1313      F1320   1.358       .  S
C1314      C1315   1.403       .  A
C1315      C1316   1.400       .  A
C1315      F1322   1.358       .  S
C1316      C1317   1.408       .  A
C1316      F1321   1.357       .  S
C1317      C1318   1.409       .  A
C1318      F1319   1.358       .  S
C1323      C1324   1.406       .  A
C1323      C1328   1.394       .  A
C1323      F1330   1.358       .  S
C1324      C1325   1.409       .  A
C1325      C1326   1.400       .  A
C1325      F1332   1.358       .  S
C1326      C1327   1.401       .  A
C1326      F1331   1.358       .  S
C1327      C1328   1.402       .  A
C1328      F1329   1.358       .  S
C1333      C1334   1.404       .  A
C1333      C1338   1.399       .  A
C1333      F1340   1.358       .  S
C1334      C1335   1.404       .  A
C1335      C1336   1.398       .  A
C1335      F1342   1.358       .  S
C1336      C1337   1.403       .  A
C1336      F1341   1.358       .  S
C1337      C1338   1.405       .  A
C1338      F1339   1.358       .  S
C1343      C1344   1.406       .  A
C1343      C1348   1.396       .  A
C1343      F1350   1.358       .  S
C1344      C1345   1.409       .  A
C1345      C1346   1.400       .  A
C1345      F1352   1.358       .  S
C1346      C1347   1.402       .  A
C1346      F1351   1.358       .  S
C1347      C1348   1.403       .  A
C1348      F1349   1.358       .  S
C1353      C1354   1.403       .  A
C1353      C1358   1.395       .  A
C1353      F1360   1.358       .  S
C1354      C1355   1.403       .  A
C1355      C1356   1.402       .  A
C1355      F1362   1.358       .  S
C1356      C1357   1.410       .  A
C1356      F1361   1.358       .  S
C1357      C1358   1.407       .  A
C1358      F1359   1.358       .  S
C1363      C1364   1.401       .  A
C1363      C1368   1.394       .  A
C1363      F1370   1.358       .  S
C1364      C1365   1.404       .  A
C1365      C1366   1.402       .  A
C1365      F1372   1.357       .  S
C1366      C1367   1.407       .  A
C1366      F1371   1.357       .  S
C1367      C1368   1.410       .  A
C1368      F1369   1.359       .  S
C1373      C1374   1.402       .  A
C1373      C1378   1.397       .  A
C1373      F1380   1.358       .  S
C1374      C1375   1.404       .  A
C1375      C1376   1.401       .  A
C1375      F1382   1.358       .  S
C1376      C1377   1.406       .  A
C1376      F1381   1.358       .  S
C1377      C1378   1.408       .  A
C1378      F1379   1.358       .  S
C1383      C1384   1.405       .  A
C1383      C1388   1.399       .  A
C1383      F1390   1.358       .  S
C1384      C1385   1.404       .  A
C1385      C1386   1.399       .  A
C1385      F1392   1.358       .  S
C1386      C1387   1.404       .  A
C1386      F1391   1.358       .  S
C1387      C1388   1.404       .  A
C1388      F1389   1.358       .  S
