geometry optimzed in LAMMPS
_audit_creation_date              2020-11-30 
_audit_creation_method            'lammps2cif' 
_symmetry_space_group_name_H-M    'P1' 
_symmetry_Int_Tables_number       1 
_symmetry_cell_setting            triclinic 
loop_ 
_symmetry_equiv_pos_as_xyz 
  x,y,z 
_cell_length_a                    30.42359264 
_cell_length_b                    35.94125837080237 
_cell_length_c                    35.590656862709594 
_cell_angle_alpha                 90.00051803186824 
_cell_angle_beta                  89.99951886278218 
_cell_angle_gamma                 89.99961714878577 
loop_ 
_atom_site_label 
_atom_site_type_symbol 
_atom_site_fract_x 
_atom_site_fract_y 
_atom_site_fract_z 
_atom_site_charge 
C1          C  0.04155427  0.09673174  0.09041944     0.80700
N2          N  0.00891202  0.07299713  0.10209856    -0.77600
C3          C  0.99733088  0.04396931  0.07916608     0.83100
N4          N  0.01938676  0.03826575  0.04655292    -0.77600
C5          C  0.05159271  0.06148461  0.03581929     0.83200
N6          N  0.06177316  0.09100354  0.05721219    -0.79300
O7          O  0.92467376  0.46713949  0.48437650    -0.78100
C8          C  0.79697357  0.00503662  0.01642204     0.83000
O9          O  0.95212442  0.49946430  0.11171202    -0.79200
O10         O  0.79645835  0.44137219  0.12762802    -0.80700
O11         O  0.85969744  0.36564828  0.02418677    -0.80500
O12         O  0.94251188  0.40867672  0.49749619    -0.79100
Zn13       Zn  0.89215310  0.48456381  0.03023582     1.55700
O14         O  0.79533348  0.38788512  0.04438679    -0.80500
Cd15       Cd  0.90724136  0.39910857  0.04390595     1.59700
Cd16       Cd  0.90821810  0.45387021  0.11490399     1.59600
O17         O  0.94694768  0.36932283  0.07902264    -0.80500
O18         O  0.87972048  0.44481234  0.06508402    -1.91000
Cd19       Cd  0.81422254  0.43840274  0.07000335     1.59900
O20         O  0.94451184  0.40637264  0.12916102    -0.80400
O21         O  0.78244563  0.47990264  0.03861079    -0.79100
C22         C  0.95771491  0.02114028  0.08361800     0.83500
C23         C  0.94351626  0.43670400  0.47617098     0.83100
O24         O  0.83787337  0.01024769  0.01129679    -0.78000
C25         C  0.81814395  0.36428855  0.02578823     0.83900
O26         O  0.93416779  0.01906041  0.05415964    -0.78100
C27         C  0.95668805  0.37636093  0.11284339     0.84000
C28         C  0.81825697  0.44973592  0.15733054     0.84400
O29         O  0.85929376  0.45776837  0.15628633    -0.80600
C30         C  0.75113878  0.28044522  0.49795548     0.03600
C31         C  0.76641713  0.27452370  0.46072444    -0.12600
C32         C  0.79796200  0.29884416  0.44502751     0.01100
C33         C  0.81317348  0.32862712  0.46677295    -0.11100
C34         C  0.79731299  0.33502762  0.50325449     0.03600
C35         C  0.76609138  0.31111513  0.01861229    -0.10500
H36         H  0.75484455  0.25083134  0.44471829     0.09200
H37         H  0.83806438  0.34698784  0.45522013     0.06700
H38         H  0.75475868  0.31545559  0.04716499     0.06500
C39         C  0.97542006  0.34673750  0.13593655     0.80700
N40         N  0.00806078  0.32300117  0.12425706    -0.77600
C41         C  0.01964066  0.29397333  0.14718927     0.83100
N42         N  0.99758515  0.28827120  0.17980234    -0.77600
C43         C  0.96538096  0.31149186  0.19053647     0.83200
N44         N  0.95520137  0.34101094  0.16914399    -0.79300
O45         O  0.09230072  0.21714037  0.24197691    -0.78100
C46         C  0.21999685  0.25504406  0.20992291     0.83000
O47         O  0.06484116  0.24946470  0.11464308    -0.79200
O48         O  0.22050660  0.19138238  0.09871626    -0.80700
O49         O  0.15728504  0.11565631  0.20216717    -0.80500
O50         O  0.07446600  0.15867706  0.22885588    -0.79100
Zn51       Zn  0.12481824  0.23456570  0.19611680     1.55700
O52         O  0.22164565  0.13789337  0.18196072    -0.80500
Cd53       Cd  0.10973657  0.14911020  0.18244609     1.59700
Cd54       Cd  0.10874600  0.20387047  0.11144915     1.59600
O55         O  0.07003334  0.11931903  0.14733057    -0.80500
O56         O  0.13725057  0.19481515  0.16126662    -1.91000
Cd57       Cd  0.20274858  0.18840911  0.15634231     1.59900
O58         O  0.07245412  0.15637058  0.09719378    -0.80400
O59         O  0.23452422  0.22991194  0.18773131    -0.79100
C60         C  0.05925433  0.27114215  0.14273672     0.83500
C61         C  0.07346053  0.18670410  0.25018191     0.83100
O62         O  0.17909736  0.26025148  0.21505373    -0.78000
C63         C  0.19883842  0.11429809  0.20056355     0.83900
O64         O  0.08280259  0.26906188  0.17219438    -0.78100
C65         C  0.06028538  0.12635706  0.11351150     0.84000
C66         C  0.19870360  0.19974619  0.06901613     0.84400
O67         O  0.15766574  0.20777432  0.07006426    -0.80600
C68         C  0.26584354  0.03045390  0.22839488     0.03600
C69         C  0.25089340  0.06112584  0.20774012    -0.12600
C70         C  0.21967217  0.08503888  0.22309812     0.01100
C71         C  0.20380992  0.07863737  0.25957937    -0.11100
C72         C  0.21901826  0.04885171  0.28132299     0.03600
C73         C  0.25056236  0.02453069  0.26562478    -0.10500
H74         H  0.26222793  0.06546697  0.17918427     0.09200
H75         H  0.17892031  0.09699679  0.27113172     0.06700
H76         H  0.26213344  0.00083492  0.28163011     0.06500
C77         C  0.99749876  0.19985083  0.32920352     0.80700
N78         N  0.01953219  0.20552235  0.29657454    -0.77600
C79         C  0.05175454  0.18231011  0.28586074     0.83100
N80         N  0.06197097  0.15282662  0.30729036    -0.77600
C81         C  0.04176540  0.14713277  0.34051162     0.83200
N82         N  0.00910513  0.17085753  0.35216641    -0.79300
O83         O  0.83805919  0.23341813  0.26121351    -0.78100
C84         C  0.94361911  0.30705593  0.22618409     0.83000
O85         O  0.95229306  0.24439773  0.36166750    -0.79200
O86         O  0.94670330  0.37453475  0.32893617    -0.80700
O87         O  0.79516175  0.35564183  0.29434791    -0.80500
O88         O  0.78256790  0.26360978  0.28861550    -0.79100
Zn89       Zn  0.89229546  0.25912133  0.28021580     1.55700
O90         O  0.85945987  0.37796000  0.27409484    -0.80500
Cd91       Cd  0.81422415  0.30517460  0.31999497     1.59700
Cd92       Cd  0.90828866  0.28990784  0.36483173     1.59600
O93         O  0.79650945  0.30218663  0.37764628    -0.80500
O94         O  0.87973649  0.29887815  0.31503158    -1.91000
Cd95       Cd  0.90709586  0.34463302  0.29383643     1.59900
O96         O  0.85943538  0.28595015  0.40624841    -0.80400
O97         O  0.94240317  0.33511667  0.24745411    -0.79100
C98         C  0.95785831  0.22264511  0.33363259     0.83500
C99         C  0.79714973  0.23854073  0.26637758     0.83100
O100        O  0.92492603  0.27655871  0.23440948    -0.78000
C101        C  0.81790683  0.37925454  0.27571117     0.83900
O102        O  0.93426217  0.22461827  0.30419587    -0.78100
C103        C  0.81837762  0.29389107  0.40733356     0.84000
C104        C  0.95651693  0.36750056  0.36274257     0.84400
O105        O  0.94446481  0.33745560  0.37905609    -0.80600
C106        C  0.75091707  0.46310489  0.24790040     0.03600
C107        C  0.76625727  0.46907204  0.21069721    -0.12600
C108        C  0.79778600  0.44474337  0.19499341     0.01100
C109        C  0.81291999  0.41490824  0.21670057    -0.11100
C110        C  0.79702181  0.40847806  0.25316561     0.03600
C111        C  0.76580701  0.43239392  0.26852908    -0.10500
H112        H  0.75474789  0.49280479  0.19472135     0.09200
H113        H  0.83781074  0.39654964  0.20514453     0.06700
H114        H  0.75445699  0.42803948  0.29707588     0.06500
C115        C  0.01947567  0.44985129  0.39714764     0.80700
N116        N  0.99744496  0.45552164  0.42977849    -0.77600
C117        C  0.96522165  0.43231057  0.44049165     0.83100
N118        N  0.95500170  0.40282941  0.41905978    -0.77600
C119        C  0.97520427  0.39713679  0.38583703     0.83200
N120        N  0.00786540  0.42086036  0.37418265    -0.79300
O121        O  0.17892086  0.48342162  0.46512975    -0.78100
C122        C  0.07335234  0.05704987  0.00016987     0.83000
O123        O  0.06468241  0.49439626  0.36468170    -0.79200
O124        O  0.07025350  0.12452712  0.39741529    -0.80700
O125        O  0.22179683  0.10565711  0.43199734    -0.80500
O126        O  0.23440884  0.01362545  0.43773711    -0.79100
Zn127      Zn  0.12468065  0.00912201  0.44613308     1.55700
O128        O  0.15749498  0.12796536  0.45225420    -0.80500
Cd129      Cd  0.20274584  0.05518489  0.40635504     1.59700
Cd130      Cd  0.10868753  0.03990634  0.36151619     1.59600
O131        O  0.22046413  0.05219692  0.34870439    -0.80500
O132        O  0.13723475  0.04887992  0.41131809    -1.91000
Cd133      Cd  0.10986464  0.09463025  0.43251538     1.59900
O134        O  0.15754380  0.03595049  0.32009976    -0.80400
O135        O  0.07455920  0.08510980  0.47889858    -0.79100
C136        C  0.05911676  0.47264482  0.39271732     0.83500
C137        C  0.21982976  0.48855120  0.45996989     0.83100
O138        O  0.09205285  0.02655562  0.49194407    -0.78000
C139        C  0.19904758  0.12926740  0.45063395     0.83900
O140        O  0.08271331  0.47461867  0.42215382    -0.78100
C141        C  0.19859998  0.04389727  0.31901610     0.84000
C142        C  0.06045038  0.11749564  0.36360595     0.84400
O143        O  0.07251117  0.08745359  0.34729085    -0.80600
C144        C  0.26603633  0.21311979  0.47844243     0.03600
C145        C  0.25069918  0.21908567  0.01564707    -0.12600
C146        C  0.21917019  0.19475767  0.03135086     0.01100
C147        C  0.20403297  0.16492477  0.00964238    -0.11100
C148        C  0.21992869  0.15849490  0.47317688     0.03600
C149        C  0.25114300  0.18241031  0.45781284    -0.10500
H150        H  0.26221222  0.24281721  0.03162481     0.09200
H151        H  0.17914316  0.14656536  0.02119959     0.06700
H152        H  0.26249238  0.17805527  0.42926586     0.06500
C153        C  0.47544856  0.34677266  0.09038132     0.80700
N154        N  0.45523145  0.34104617  0.05717326    -0.77600
C155        C  0.46540601  0.31152274  0.03578446     0.83100
N156        N  0.49760470  0.28829837  0.04652253    -0.77600
C157        C  0.51965893  0.29400106  0.07913638     0.83200
N158        N  0.50808174  0.32303187  0.10206557    -0.79300
O159        O  0.67909499  0.26023172  0.01127415    -0.78100
C160        C  0.57343043  0.18668730  0.47618971     0.83000
O161        O  0.56485325  0.24950107  0.11170225    -0.79200
O162        O  0.57003100  0.11933632  0.07905354    -0.80700
O163        O  0.72163274  0.13789434  0.04439548    -0.80500
O164        O  0.73451979  0.22991093  0.03861954    -0.79100
Zn165      Zn  0.62481610  0.23455674  0.03022536     1.55700
O166        O  0.65726941  0.11565463  0.02419943    -0.80500
Cd167      Cd  0.70274163  0.18841205  0.07001265     1.59700
Cd168      Cd  0.60874362  0.20389604  0.11490932     1.59600
O169        O  0.72050039  0.19138010  0.12763777    -0.80500
O170        O  0.63724471  0.19482132  0.06509190    -1.91000
Cd171      Cd  0.60972625  0.14911353  0.04392515     1.59900
O172        O  0.65766632  0.20778549  0.15629491    -0.80400
O173        O  0.57443334  0.15866823  0.49752566    -0.79100
C174        C  0.55926571  0.27116302  0.08359668     0.83500
C175        C  0.71999396  0.25503096  0.01641358     0.83100
O176        O  0.59228611  0.21712103  0.48437782    -0.78000
C177        C  0.69882318  0.11429668  0.02579807     0.83900
O178        O  0.58280856  0.26906302  0.05413735    -0.78100
C179        C  0.69870150  0.19974591  0.15733988     0.84000
C180        C  0.56026890  0.12639047  0.11286616     0.84400
O181        O  0.57243127  0.15641070  0.12917487    -0.80600
C182        C  0.76582873  0.03045201  0.49796522     0.03600
C183        C  0.75054703  0.02452783  0.46073599    -0.12600
C184        C  0.71900270  0.04884838  0.44503867     0.01100
C185        C  0.70379250  0.07863335  0.46678291    -0.11100
C186        C  0.71965516  0.08503595  0.50326357     0.03600
C187        C  0.75087858  0.06112406  0.01862056    -0.10500
H188        H  0.76211790  0.00083381  0.44473110     0.09200
H189        H  0.67890109  0.09699291  0.45523057     0.06700
H190        H  0.76221367  0.06546614  0.04717313     0.06500
C191        C  0.54152953  0.09677432  0.13596249     0.80700
N192        N  0.50889820  0.07303257  0.12427691    -0.77600
C193        C  0.49732051  0.04400240  0.14720609     0.83100
N194        N  0.51937269  0.03830112  0.17982085    -0.77600
C195        C  0.55156864  0.06152684  0.19056070     0.83200
N196        N  0.56174389  0.09104969  0.16917199    -0.79300
O197        O  0.33788656  0.01023870  0.21507164    -0.78100
C198        C  0.44353889  0.43668634  0.25015730     0.83000
O199        O  0.45212783  0.49950050  0.11464092    -0.79200
O200        O  0.44695122  0.36933813  0.14729136    -0.80700
O201        O  0.29534242  0.38790188  0.18194887    -0.80500
O202        O  0.28245979  0.47991853  0.18772973    -0.79100
Zn203      Zn  0.39216367  0.48456060  0.19611820     1.55700
O204        O  0.35970572  0.36565408  0.20213680    -0.80500
Cd205      Cd  0.31423618  0.43841953  0.15633353     1.59700
Cd206      Cd  0.40823656  0.45389681  0.11143566     1.59600
O207        O  0.29647808  0.44139081  0.09870840    -0.80500
O208        O  0.37973378  0.44482425  0.16125287    -1.91000
Cd209      Cd  0.40724995  0.39911408  0.18241751     1.59900
O210        O  0.35931401  0.45779048  0.07005160    -0.80400
O211        O  0.44253254  0.40866576  0.22882300    -0.79100
C212        C  0.45771444  0.02116398  0.14274572     0.83500
C213        C  0.29698711  0.00503872  0.20993489     0.83100
O214        O  0.42469177  0.46712295  0.24196550    -0.78000
C215        C  0.31815159  0.36430028  0.20054160     0.83900
O216        O  0.43417148  0.01906501  0.17220506    -0.78100
C217        C  0.31827798  0.44975509  0.06900656     0.84000
C218        C  0.45671037  0.37639020  0.11347779     0.84400
O219        O  0.44454583  0.40640943  0.09716866    -0.80600
C220        C  0.25114187  0.28045994  0.22837846     0.03600
C221        C  0.26609438  0.31112954  0.20772075    -0.12600
C222        C  0.29731878  0.33504105  0.22307713     0.01100
C223        C  0.31318098  0.32863989  0.25955811    -0.11100
C224        C  0.29796834  0.29885747  0.28130407     0.03600
C225        C  0.26642238  0.27453801  0.26560800    -0.10500
H226        H  0.25476084  0.31546953  0.17916914     0.09200
H227        H  0.33807412  0.34699883  0.27110975     0.06700
H228        H  0.25484930  0.25084558  0.28161475     0.06500
C229        C  0.54173960  0.14711177  0.38586169     0.80700
N230        N  0.56193687  0.15280283  0.41908659    -0.77600
C231        C  0.55171606  0.18228528  0.44051633     0.83100
N232        N  0.51949722  0.20549913  0.42979913    -0.77600
C233        C  0.49747104  0.19982995  0.39716628     0.83200
N234        N  0.50908410  0.17083896  0.37420227    -0.79300
O235        O  0.42492282  0.27658500  0.49193341    -0.78100
C236        C  0.29713245  0.23856023  0.45996687     0.83000
O237        O  0.45227641  0.24437241  0.36468224    -0.79200
O238        O  0.29651386  0.30220304  0.34868497    -0.80700
O239        O  0.35946677  0.37796597  0.45224101    -0.80500
O240        O  0.44242497  0.33513087  0.47886095    -0.79100
Zn241      Zn  0.39228237  0.25913839  0.44613478     1.55700
O242        O  0.29516538  0.35565274  0.43199051    -0.80500
Cd243      Cd  0.40709615  0.34463851  0.43248942     1.59700
Cd244      Cd  0.40828810  0.28989518  0.36150525     1.59600
O245        O  0.44669550  0.37453198  0.39738108    -0.80500
O246        O  0.37973164  0.29888226  0.41130319    -1.91000
Cd247      Cd  0.31422024  0.30518447  0.40633868     1.59900
O248        O  0.44448673  0.33743070  0.34727620    -0.80400
O249        O  0.28255526  0.26361909  0.43771498    -0.79100
C250        C  0.45783771  0.22263230  0.39272759     0.83500
C251        C  0.44363412  0.30707883  0.00014218     0.83100
O252        O  0.33804100  0.23344552  0.46514431    -0.78000
C253        C  0.31791384  0.37926286  0.45062795     0.83900
O254        O  0.43424354  0.22462434  0.42216454    -0.78100
C255        C  0.45652947  0.36748256  0.36358232     0.84000
C256        C  0.31838173  0.29390223  0.31899834     0.84400
O257        O  0.35943651  0.28594976  0.32008498    -0.80600
C258        C  0.25092610  0.46311184  0.47844393     0.03600
C259        C  0.26581161  0.43239838  0.45781664    -0.12600
C260        C  0.29703323  0.40848736  0.47317597     0.01100
C261        C  0.31294012  0.41492363  0.00963720    -0.11100
C262        C  0.29780794  0.44476054  0.03134404     0.03600
C263        C  0.26627515  0.46908564  0.01564264    -0.10500
H264        H  0.25445419  0.42803940  0.42927242     0.09200
H265        H  0.33783419  0.39656819  0.02119065     0.06700
H266        H  0.25476641  0.49282114  0.03161865     0.06500
C267        C  0.47522774  0.39711076  0.34048549     0.80700
N268        N  0.50788117  0.42083908  0.35214629    -0.77600
C269        C  0.51949231  0.44983100  0.32918356     0.83100
N270        N  0.49746617  0.45550005  0.29655090    -0.77600
C271        C  0.46525036  0.43228454  0.28583175     0.83200
N272        N  0.45503111  0.40280117  0.30726016    -0.79300
O273        O  0.59204216  0.02658610  0.23441452    -0.78100
C274        C  0.71982476  0.48854818  0.26637680     0.83000
O275        O  0.56468966  0.49437179  0.36166781    -0.79200
O276        O  0.72045631  0.05219029  0.37765761    -0.80700
O277        O  0.65750871  0.12796461  0.27410985    -0.80500
O278        O  0.57455208  0.08513590  0.24748327    -0.79100
Zn279      Zn  0.62467936  0.00913642  0.28021223     1.55700
O280        O  0.72180835  0.10564108  0.29435298    -0.80500
Cd281      Cd  0.60987611  0.09463940  0.29385830     1.59700
Cd282      Cd  0.60867826  0.03989406  0.36484135     1.59600
O283        O  0.57027455  0.12453319  0.32896602    -0.80500
O284        O  0.63723476  0.04887970  0.31504307    -1.91000
Cd285      Cd  0.70274745  0.05517485  0.32000481     1.59900
O286        O  0.57248044  0.08743103  0.37907020    -0.80400
O287        O  0.73440598  0.01360684  0.28862699    -0.79100
C288        C  0.55912516  0.47263326  0.33362149     0.83500
C289        C  0.57333840  0.05708264  0.22620350     0.83100
O290        O  0.67891549  0.48343650  0.26120185    -0.78000
C291        C  0.69906204  0.12925552  0.27571935     0.83900
O292        O  0.58271575  0.47462696  0.30418288    -0.78100
C293        C  0.56043882  0.11748343  0.36276437     0.84000
C294        C  0.69858816  0.04389313  0.40734487     0.84400
O295        O  0.65753197  0.03594641  0.40625952    -0.80600
C296        C  0.76605586  0.21309980  0.24790234     0.03600
C297        C  0.75116845  0.18238756  0.26852985    -0.12600
C298        C  0.71994544  0.15847766  0.25317071     0.01100
C299        C  0.70403863  0.16491434  0.21670941    -0.11100
C300        C  0.71917202  0.19474995  0.19500219     0.03600
C301        C  0.75070689  0.21907338  0.21070348    -0.10500
H302        H  0.76252556  0.17802884  0.29707492     0.09200
H303        H  0.67914061  0.14655804  0.20515495     0.06700
H304        H  0.76221661  0.24280892  0.19472725     0.06500
C305        C  0.04155428  0.09673166  0.59041941     0.80700
N306        N  0.00891203  0.07299705  0.60209853    -0.77600
C307        C  0.99733082  0.04396932  0.57916608     0.83100
N308        N  0.01938669  0.03826585  0.54655295    -0.77600
C309        C  0.05159276  0.06148465  0.53581932     0.83200
N310        N  0.06177316  0.09100357  0.55721214    -0.79300
O311        O  0.92467369  0.46713945  0.98437648    -0.78100
C312        C  0.79697346  0.00503662  0.51642209     0.83000
O313        O  0.95212446  0.49946433  0.61171205    -0.79200
O314        O  0.79645839  0.44137226  0.62762805    -0.80700
O315        O  0.85969745  0.36564829  0.52418680    -0.80500
O316        O  0.94251182  0.40867664  0.99749619    -0.79100
Zn317      Zn  0.89215310  0.48456382  0.53023588     1.55700
O318        O  0.79533351  0.38788511  0.54438683    -0.80500
Cd319      Cd  0.90724137  0.39910860  0.54390600     1.59700
Cd320      Cd  0.90821811  0.45387023  0.61490403     1.59600
O321        O  0.94694770  0.36932286  0.57902270    -0.80500
O322        O  0.87972050  0.44481237  0.56508407    -1.91000
Cd323      Cd  0.81422256  0.43840274  0.57000341     1.59900
O324        O  0.94451185  0.40637267  0.62916107    -0.80400
O325        O  0.78244562  0.47990264  0.53861067    -0.79100
C326        C  0.95771492  0.02114028  0.58361801     0.83500
C327        C  0.94351626  0.43670399  0.97617101     0.83100
O328        O  0.83787321  0.01024764  0.51129690    -0.78000
C329        C  0.81814397  0.36428855  0.52578822     0.83900
O330        O  0.93416777  0.01906042  0.55415967    -0.78100
C331        C  0.95668803  0.37636094  0.61284345     0.84000
C332        C  0.81825688  0.44973596  0.65733055     0.84400
O333        O  0.85929360  0.45776832  0.65628628    -0.80600
C334        C  0.75113882  0.28044516  0.99795532     0.03600
C335        C  0.76641716  0.27452367  0.96072434    -0.12600
C336        C  0.79796199  0.29884426  0.94502735     0.01100
C337        C  0.81317345  0.32862712  0.96677288    -0.11100
C338        C  0.79731310  0.33502766  0.00325435     0.03600
C339        C  0.76609145  0.31111516  0.51861225    -0.10500
H340        H  0.75484458  0.25083127  0.94471821     0.09200
H341        H  0.83806566  0.34698848  0.95521964     0.06700
H342        H  0.75475803  0.31545608  0.54716696     0.06500
C343        C  0.97542001  0.34673746  0.63593658     0.80700
N344        N  0.00806074  0.32300115  0.62425700    -0.77600
C345        C  0.01964062  0.29397338  0.64718926     0.83100
N346        N  0.99758510  0.28827123  0.67980235    -0.77600
C347        C  0.96538096  0.31149187  0.69053654     0.83200
N348        N  0.95520139  0.34101095  0.66914409    -0.79300
O349        O  0.09230078  0.21714040  0.74197696    -0.78100
C350        C  0.21999689  0.25504398  0.70992299     0.83000
O351        O  0.06484109  0.24946480  0.61464311    -0.79200
O352        O  0.22050660  0.19138239  0.59871624    -0.80700
O353        O  0.15728508  0.11565626  0.70216717    -0.80500
O354        O  0.07446594  0.15867690  0.72885592    -0.79100
Zn355      Zn  0.12481825  0.23456569  0.69611682     1.55700
O356        O  0.22164575  0.13789346  0.68196079    -0.80500
Cd357      Cd  0.10973657  0.14911021  0.68244612     1.59700
Cd358      Cd  0.10874583  0.20387049  0.61144919     1.59600
O359        O  0.07003344  0.11931906  0.64733060    -0.80500
O360        O  0.13725047  0.19481520  0.66126661    -1.91000
Cd361      Cd  0.20274859  0.18840914  0.65634231     1.59900
O362        O  0.07245396  0.15637048  0.59719390    -0.80400
O363        O  0.23452431  0.22991208  0.68773117    -0.79100
C364        C  0.05925422  0.27114221  0.64273668     0.83500
C365        C  0.07346060  0.18670404  0.75018194     0.83100
O366        O  0.17909740  0.26025139  0.71505378    -0.78000
C367        C  0.19883848  0.11429806  0.70056352     0.83900
O368        O  0.08280250  0.26906182  0.67219425    -0.78100
C369        C  0.06028542  0.12635694  0.61351154     0.84000
C370        C  0.19870352  0.19974622  0.56901620     0.84400
O371        O  0.15766563  0.20777431  0.57006434    -0.80600
C372        C  0.26584357  0.03045378  0.72839496     0.03600
C373        C  0.25089342  0.06112582  0.70774012    -0.12600
C374        C  0.21967213  0.08503887  0.72309823     0.01100
C375        C  0.20380989  0.07863736  0.75957936    -0.11100
C376        C  0.21901830  0.04885177  0.78132299     0.03600
C377        C  0.25056241  0.02453062  0.76562480    -0.10500
H378        H  0.26222751  0.06546706  0.67918579     0.09200
H379        H  0.17892015  0.09699692  0.77113183     0.06700
H380        H  0.26213341  0.00083508  0.78163003     0.06500
C381        C  0.99749877  0.19985087  0.82920355     0.80700
N382        N  0.01953223  0.20552235  0.79657457    -0.77600
C383        C  0.05175457  0.18231007  0.78586075     0.83100
N384        N  0.06197088  0.15282652  0.80729032    -0.77600
C385        C  0.04176549  0.14713286  0.84051169     0.83200
N386        N  0.00910503  0.17085750  0.85216634    -0.79300
O387        O  0.83805922  0.23341811  0.76121346    -0.78100
C388        C  0.94361917  0.30705593  0.72618410     0.83000
O389        O  0.95229308  0.24439782  0.86166757    -0.79200
O390        O  0.94670323  0.37453481  0.82893593    -0.80700
O391        O  0.79516172  0.35564180  0.79434784    -0.80500
O392        O  0.78256796  0.26360978  0.78861536    -0.79100
Zn393      Zn  0.89229546  0.25912136  0.78021580     1.55700
O394        O  0.85945985  0.37795998  0.77409472    -0.80500
Cd395      Cd  0.81422418  0.30517463  0.81999483     1.59700
Cd396      Cd  0.90828867  0.28990785  0.86483174     1.59600
O397        O  0.79650951  0.30218663  0.87764623    -0.80500
O398        O  0.87973654  0.29887821  0.81503148    -1.91000
Cd399      Cd  0.90709588  0.34463306  0.79383629     1.59900
O400        O  0.85943538  0.28595020  0.90624835    -0.80400
O401        O  0.94240325  0.33511671  0.74745402    -0.79100
C402        C  0.95785830  0.22264511  0.83363270     0.83500
C403        C  0.79714976  0.23854077  0.76637739     0.83100
O404        O  0.92492605  0.27655874  0.73440954    -0.78000
C405        C  0.81790683  0.37925465  0.77571131     0.83900
O406        O  0.93426226  0.22461830  0.80419594    -0.78100
C407        C  0.81837763  0.29389109  0.90733349     0.84000
C408        C  0.95651696  0.36750054  0.86274240     0.84400
O409        O  0.94446486  0.33745560  0.87905610    -0.80600
C410        C  0.75091712  0.46310487  0.74790048     0.03600
C411        C  0.76625724  0.46907209  0.71069725    -0.12600
C412        C  0.79778607  0.44474331  0.69499343     0.01100
C413        C  0.81291998  0.41490827  0.71670057    -0.11100
C414        C  0.79702188  0.40847804  0.75316558     0.03600
C415        C  0.76580705  0.43239396  0.76852907    -0.10500
H416        H  0.75474823  0.49280418  0.69472203     0.09200
H417        H  0.83781206  0.39654896  0.70514404     0.06700
H418        H  0.75445705  0.42803956  0.79707576     0.06500
C419        C  0.01947570  0.44985133  0.89714761     0.80700
N420        N  0.99744507  0.45552162  0.92977850    -0.77600
C421        C  0.96522161  0.43231063  0.94049162     0.83100
N422        N  0.95500165  0.40282942  0.91905977    -0.77600
C423        C  0.97520425  0.39713679  0.88583697     0.83200
N424        N  0.00786550  0.42086033  0.87418266    -0.79300
O425        O  0.17892088  0.48342176  0.96512968    -0.78100
C426        C  0.07335238  0.05704998  0.50016987     0.83000
O427        O  0.06468237  0.49439623  0.86468175    -0.79200
O428        O  0.07025352  0.12452714  0.89741534    -0.80700
O429        O  0.22179686  0.10565709  0.93199728    -0.80500
O430        O  0.23440883  0.01362539  0.93773697    -0.79100
Zn431      Zn  0.12468067  0.00912200  0.94613314     1.55700
O432        O  0.15749499  0.12796551  0.95225411    -0.80500
Cd433      Cd  0.20274585  0.05518489  0.90635491     1.59700
Cd434      Cd  0.10868754  0.03990634  0.86151623     1.59600
O435        O  0.22046420  0.05219693  0.84870425    -0.80500
O436        O  0.13723477  0.04888007  0.91131808    -1.91000
Cd437      Cd  0.10986464  0.09463026  0.93251538     1.59900
O438        O  0.15754378  0.03595048  0.82009982    -0.80400
O439        O  0.07455926  0.08510963  0.97889867    -0.79100
C440        C  0.05911676  0.47264482  0.89271736     0.83500
C441        C  0.21982976  0.48855122  0.95996977     0.83100
O442        O  0.09205296  0.02655565  0.99194401    -0.78000
C443        C  0.19904761  0.12926737  0.95063395     0.83900
O444        O  0.08271334  0.47461866  0.92215383    -0.78100
C445        C  0.19859999  0.04389723  0.81901605     0.84000
C446        C  0.06045026  0.11749560  0.86360604     0.84400
O447        O  0.07251121  0.08745357  0.84729091    -0.80600
C448        C  0.26603633  0.21311977  0.97844251     0.03600
C449        C  0.25069919  0.21908565  0.51564704    -0.12600
C450        C  0.21917016  0.19475769  0.53135099     0.01100
C451        C  0.20403295  0.16492483  0.50964250    -0.11100
C452        C  0.21992866  0.15849489  0.97317677     0.03600
C453        C  0.25114299  0.18241031  0.95781280    -0.10500
H454        H  0.26221230  0.24281722  0.53162475     0.09200
H455        H  0.17914311  0.14656528  0.52119969     0.06700
H456        H  0.26249240  0.17805530  0.92926598     0.06500
C457        C  0.47544853  0.34677269  0.59038132     0.80700
N458        N  0.45523145  0.34104620  0.55717325    -0.77600
C459        C  0.46540601  0.31152270  0.53578448     0.83100
N460        N  0.49760469  0.28829825  0.54652260    -0.77600
C461        C  0.51965899  0.29400110  0.57913637     0.83200
N462        N  0.50808162  0.32303185  0.60206555    -0.79300
O463        O  0.67909499  0.26023174  0.51127418    -0.78100
C464        C  0.57343042  0.18668731  0.97618972     0.83000
O465        O  0.56485325  0.24950108  0.61170232    -0.79200
O466        O  0.57003107  0.11933635  0.57905354    -0.80700
O467        O  0.72163282  0.13789431  0.54439544    -0.80500
O468        O  0.73451985  0.22991097  0.53861946    -0.79100
Zn469      Zn  0.62481609  0.23455676  0.53022539     1.55700
O470        O  0.65726923  0.11565458  0.52419940    -0.80500
Cd471      Cd  0.70274164  0.18841209  0.57001253     1.59700
Cd472      Cd  0.60874363  0.20389605  0.61490937     1.59600
O473        O  0.72050033  0.19138013  0.62763762    -0.80500
O474        O  0.63724471  0.19482136  0.56509188    -1.91000
Cd475      Cd  0.60972625  0.14911355  0.54392516     1.59900
O476        O  0.65766636  0.20778551  0.65629492    -0.80400
O477        O  0.57443333  0.15866824  0.99752565    -0.79100
C478        C  0.55926569  0.27116304  0.58359675     0.83500
C479        C  0.71999397  0.25503099  0.51641356     0.83100
O480        O  0.59228611  0.21712104  0.98437781    -0.78000
C481        C  0.69882306  0.11429667  0.52579808     0.83900
O482        O  0.58280850  0.26906307  0.55413741    -0.78100
C483        C  0.69870153  0.19974590  0.65733985     0.84000
C484        C  0.56026890  0.12639052  0.61286618     0.84400
O485        O  0.57243136  0.15641075  0.62917490    -0.80600
C486        C  0.76582877  0.03045186  0.99796502     0.03600
C487        C  0.75054698  0.02452784  0.96073601    -0.12600
C488        C  0.71900266  0.04884844  0.94503859     0.01100
C489        C  0.70379244  0.07863328  0.96678294    -0.11100
C490        C  0.71965513  0.08503593  0.00326339     0.03600
C491        C  0.75087847  0.06112421  0.51862058    -0.10500
H492        H  0.76211851  0.00083324  0.94473045     0.09200
H493        H  0.67890008  0.09699385  0.95522999     0.06700
H494        H  0.76221437  0.06546675  0.54717523     0.06500
C495        C  0.54152954  0.09677426  0.63596261     0.80700
N496        N  0.50889822  0.07303251  0.62427696    -0.77600
C497        C  0.49732052  0.04400235  0.64720606     0.83100
N498        N  0.51937268  0.03830116  0.67982082    -0.77600
C499        C  0.55156860  0.06152682  0.69056077     0.83200
N500        N  0.56174389  0.09104960  0.66917213    -0.79300
O501        O  0.33788658  0.01023855  0.71507166    -0.78100
C502        C  0.44353894  0.43668637  0.75015730     0.83000
O503        O  0.45212781  0.49950052  0.61464081    -0.79200
O504        O  0.44695111  0.36933811  0.64729136    -0.80700
O505        O  0.29534244  0.38790193  0.68194889    -0.80500
O506        O  0.28245974  0.47991846  0.68772967    -0.79100
Zn507      Zn  0.39216368  0.48456057  0.69611824     1.55700
O508        O  0.35970570  0.36565408  0.70213686    -0.80500
Cd509      Cd  0.31423618  0.43841955  0.65633354     1.59700
Cd510      Cd  0.40823655  0.45389684  0.61143553     1.59600
O511        O  0.29647813  0.44139086  0.59870842    -0.80500
O512        O  0.37973403  0.44482428  0.66125273    -1.91000
Cd513      Cd  0.40724996  0.39911411  0.68241753     1.59900
O514        O  0.35931380  0.45779045  0.57005157    -0.80400
O515        O  0.44253265  0.40866581  0.72882304    -0.79100
C516        C  0.45771440  0.02116394  0.64274575     0.83500
C517        C  0.29698712  0.00503858  0.70993498     0.83100
O518        O  0.42469171  0.46712293  0.74196549    -0.78000
C519        C  0.31815159  0.36430029  0.70054159     0.83900
O520        O  0.43417142  0.01906492  0.67220511    -0.78100
C521        C  0.31827786  0.44975506  0.56900653     0.84000
C522        C  0.45671051  0.37639026  0.61347784     0.84400
O523        O  0.44454574  0.40640936  0.59716860    -0.80600
C524        C  0.25114184  0.28045998  0.72837830     0.03600
C525        C  0.26609449  0.31112955  0.70772100    -0.12600
C526        C  0.29731874  0.33504111  0.72307703     0.01100
C527        C  0.31318089  0.32863987  0.75955796    -0.11100
C528        C  0.29796834  0.29885753  0.78130396     0.03600
C529        C  0.26642233  0.27453806  0.76560785    -0.10500
H530        H  0.25475966  0.31547014  0.67916668     0.09200
H531        H  0.33807479  0.34699964  0.77111000     0.06700
H532        H  0.25484926  0.25084560  0.78161452     0.06500
C533        C  0.54173958  0.14711178  0.88586175     0.80700
N534        N  0.56193689  0.15280286  0.91908665    -0.77600
C535        C  0.55171607  0.18228531  0.94051637     0.83100
N536        N  0.51949723  0.20549915  0.92979918    -0.77600
C537        C  0.49747106  0.19982999  0.89716633     0.83200
N538        N  0.50908411  0.17083899  0.87420234    -0.79300
O539        O  0.42492278  0.27658506  0.99193340    -0.78100
C540        C  0.29713243  0.23856022  0.95996689     0.83000
O541        O  0.45227643  0.24437243  0.86468229    -0.79200
O542        O  0.29651380  0.30220298  0.84868486    -0.80700
O543        O  0.35946678  0.37796601  0.95224105    -0.80500
O544        O  0.44242510  0.33513086  0.97886103    -0.79100
Zn545      Zn  0.39228238  0.25913840  0.94613481     1.55700
O546        O  0.29516550  0.35565261  0.93199045    -0.80500
Cd547      Cd  0.40709616  0.34463851  0.93248945     1.59700
Cd548      Cd  0.40828812  0.28989520  0.86150528     1.59600
O549        O  0.44669562  0.37453202  0.89738113    -0.80500
O550        O  0.37973166  0.29888222  0.91130317    -1.91000
Cd551      Cd  0.31422026  0.30518434  0.90633857     1.59900
O552        O  0.44448671  0.33743065  0.84727614    -0.80400
O553        O  0.28255527  0.26361903  0.93771490    -0.79100
C554        C  0.45783773  0.22263233  0.89272763     0.83500
C555        C  0.44363409  0.30707882  0.50014214     0.83100
O556        O  0.33804098  0.23344553  0.96514432    -0.78000
C557        C  0.31791386  0.37926281  0.95062793     0.83900
O558        O  0.43424356  0.22462436  0.92216459    -0.78100
C559        C  0.45652953  0.36748251  0.86358233     0.84000
C560        C  0.31838173  0.29390224  0.81899827     0.84400
O561        O  0.35943652  0.28594978  0.82008500    -0.80600
C562        C  0.25092610  0.46311190  0.97844382     0.03600
C563        C  0.26581155  0.43239841  0.95781654    -0.12600
C564        C  0.29703309  0.40848745  0.97317581     0.01100
C565        C  0.31293993  0.41492374  0.50963718    -0.11100
C566        C  0.29780797  0.44476039  0.53134408     0.03600
C567        C  0.26627529  0.46908549  0.51564260    -0.10500
H568        H  0.25445410  0.42803941  0.92927234     0.09200
H569        H  0.33783665  0.39656610  0.52119216     0.06700
H570        H  0.25476621  0.49282172  0.53161929     0.06500
C571        C  0.47522769  0.39711077  0.84048553     0.80700
N572        N  0.50788120  0.42083905  0.85214635    -0.77600
C573        C  0.51949229  0.44983102  0.82918364     0.83100
N574        N  0.49746623  0.45550000  0.79655092    -0.77600
C575        C  0.46525041  0.43228452  0.78583171     0.83200
N576        N  0.45503109  0.40280118  0.80726015    -0.79300
O577        O  0.59204208  0.02658602  0.73441450    -0.78100
C578        C  0.71982479  0.48854814  0.76637694     0.83000
O579        O  0.56468969  0.49437181  0.86166774    -0.79200
O580        O  0.72045631  0.05219028  0.87765764    -0.80700
O581        O  0.65750878  0.12796462  0.77410981    -0.80500
O582        O  0.57455204  0.08513590  0.74748333    -0.79100
Zn583      Zn  0.62467936  0.00913630  0.78021210     1.55700
O584        O  0.72180844  0.10564104  0.79435312    -0.80500
Cd585      Cd  0.60987609  0.09463941  0.79385832     1.59700
Cd586      Cd  0.60867828  0.03989407  0.86484119     1.59600
O587        O  0.57027447  0.12453314  0.82896601    -0.80500
O588        O  0.63723479  0.04887956  0.81504292    -1.91000
Cd589      Cd  0.70274747  0.05517485  0.82000483     1.59900
O590        O  0.57248053  0.08743107  0.87907018    -0.80400
O591        O  0.73440599  0.01360694  0.78862701    -0.79100
C592        C  0.55912522  0.47263326  0.83362146     0.83500
C593        C  0.57333852  0.05708265  0.72620348     0.83100
O594        O  0.67891554  0.48343656  0.76120174    -0.78000
C595        C  0.69906213  0.12925543  0.77571930     0.83900
O596        O  0.58271579  0.47462703  0.80418281    -0.78100
C597        C  0.56043874  0.11748341  0.86276437     0.84000
C598        C  0.69858810  0.04389310  0.90734483     0.84400
O599        O  0.65753188  0.03594641  0.90625936    -0.80600
C600        C  0.76605588  0.21309975  0.74790227     0.03600
C601        C  0.75116845  0.18238755  0.76852980    -0.12600
C602        C  0.71994538  0.15847773  0.75317073     0.01100
C603        C  0.70403865  0.16491428  0.71670940    -0.11100
C604        C  0.71917202  0.19474993  0.69500227     0.03600
C605        C  0.75070689  0.21907333  0.71070350    -0.10500
H606        H  0.76252553  0.17802882  0.79707492     0.09200
H607        H  0.67914075  0.14655819  0.70515502     0.06700
H608        H  0.76221652  0.24280881  0.69472731     0.06500
C609        C  0.04155423  0.59673174  0.09041942     0.80700
N610        N  0.00891199  0.57299713  0.10209854    -0.77600
C611        C  0.99733087  0.54396931  0.07916608     0.83100
N612        N  0.01938675  0.53826577  0.04655292    -0.77600
C613        C  0.05159271  0.56148462  0.03581929     0.83200
N614        N  0.06177315  0.59100355  0.05721218    -0.79300
O615        O  0.92467377  0.96713945  0.48437649    -0.78100
C616        C  0.79697350  0.50503666  0.01642210     0.83000
O617        O  0.95212442  0.99946430  0.11171203    -0.79200
O618        O  0.79645834  0.94137223  0.12762802    -0.80700
O619        O  0.85969744  0.86564829  0.02418678    -0.80500
O620        O  0.94251184  0.90867664  0.49749621    -0.79100
Zn621      Zn  0.89215310  0.98456383  0.03023582     1.55700
O622        O  0.79533349  0.88788513  0.04438680    -0.80500
Cd623      Cd  0.90724138  0.89910859  0.04390596     1.59700
Cd624      Cd  0.90821809  0.95387022  0.11490399     1.59600
O625        O  0.94694780  0.86932293  0.07902259    -0.80500
O626        O  0.87972048  0.94481235  0.06508403    -1.91000
Cd627      Cd  0.81422256  0.93840274  0.07000336     1.59900
O628        O  0.94451181  0.90637258  0.12916104    -0.80400
O629        O  0.78244557  0.97990265  0.03861071    -0.79100
C630        C  0.95771491  0.52114028  0.08361800     0.83500
C631        C  0.94351628  0.93670397  0.47617102     0.83100
O632        O  0.83787325  0.51024765  0.01129678    -0.78000
C633        C  0.81814395  0.86428856  0.02578822     0.83900
O634        O  0.93416777  0.51906041  0.05415965    -0.78100
C635        C  0.95668819  0.87636097  0.11284336     0.84000
C636        C  0.81825696  0.94973594  0.15733054     0.84400
O637        O  0.85929375  0.95776839  0.15628633    -0.80600
C638        C  0.75113880  0.78044520  0.49795545     0.03600
C639        C  0.76641712  0.77452366  0.46072439    -0.12600
C640        C  0.79796198  0.79884416  0.44502751     0.01100
C641        C  0.81317349  0.82862710  0.46677301    -0.11100
C642        C  0.79731293  0.83502770  0.50325451     0.03600
C643        C  0.76609142  0.81111519  0.01861231    -0.10500
H644        H  0.75484455  0.75083131  0.44471823     0.09200
H645        H  0.83806445  0.84698793  0.45522008     0.06700
H646        H  0.75475856  0.81545592  0.04716522     0.06500
C647        C  0.97542013  0.84673751  0.13593657     0.80700
N648        N  0.00806077  0.82300116  0.12425701    -0.77600
C649        C  0.01964068  0.79397339  0.14718929     0.83100
N650        N  0.99758509  0.78827124  0.17980236    -0.77600
C651        C  0.96538090  0.81149185  0.19053650     0.83200
N652        N  0.95520145  0.84101097  0.16914406    -0.79300
O653        O  0.09230076  0.71714040  0.24197692    -0.78100
C654        C  0.21999688  0.75504399  0.20992294     0.83000
O655        O  0.06484120  0.74946467  0.11464306    -0.79200
O656        O  0.22050660  0.69138240  0.09871626    -0.80700
O657        O  0.15728498  0.61565637  0.20216718    -0.80500
O658        O  0.07446590  0.65867690  0.22885586    -0.79100
Zn659      Zn  0.12481824  0.73456570  0.19611680     1.55700
O660        O  0.22164564  0.63789337  0.18196074    -0.80500
Cd661      Cd  0.10973658  0.64911020  0.18244609     1.59700
Cd662      Cd  0.10874600  0.70387048  0.11144915     1.59600
O663        O  0.07003344  0.61931906  0.14733056    -0.80500
O664        O  0.13725056  0.69481517  0.16126661    -1.91000
Cd665      Cd  0.20274860  0.68840913  0.15634231     1.59900
O666        O  0.07245408  0.65637052  0.09719389    -0.80400
O667        O  0.23452431  0.72991193  0.18773122    -0.79100
C668        C  0.05925431  0.77114214  0.14273670     0.83500
C669        C  0.07346055  0.68670403  0.25018189     0.83100
O670        O  0.17909737  0.76025146  0.21505381    -0.78000
C671        C  0.19883837  0.61429811  0.20056358     0.83900
O672        O  0.08280257  0.76906191  0.17219437    -0.78100
C673        C  0.06028542  0.62635700  0.11351152     0.84000
C674        C  0.19870360  0.69974621  0.06901613     0.84400
O675        O  0.15766574  0.70777434  0.07006426    -0.80600
C676        C  0.26584356  0.53045387  0.22839483     0.03600
C677        C  0.25089339  0.56112586  0.20774013    -0.12600
C678        C  0.21967220  0.58503891  0.22309814     0.01100
C679        C  0.20380993  0.57863734  0.25957934    -0.11100
C680        C  0.21901830  0.54885176  0.28132298     0.03600
C681        C  0.25056236  0.52453064  0.26562476    -0.10500
H682        H  0.26222811  0.56546729  0.17918400     0.09200
H683        H  0.17892027  0.59699685  0.27113178     0.06700
H684        H  0.26213340  0.50083509  0.28162999     0.06500
C685        C  0.99749876  0.69985085  0.32920353     0.80700
N686        N  0.01953223  0.70552231  0.29657456    -0.77600
C687        C  0.05175454  0.68231006  0.28586073     0.83100
N688        N  0.06197090  0.65282659  0.30729034    -0.77600
C689        C  0.04176540  0.64713286  0.34051165     0.83200
N690        N  0.00910504  0.67085755  0.35216639    -0.79300
O691        O  0.83805917  0.73341814  0.26121351    -0.78100
C692        C  0.94361917  0.80705597  0.22618413     0.83000
O693        O  0.95229307  0.74439775  0.36166751    -0.79200
O694        O  0.94670329  0.87453477  0.32893615    -0.80700
O695        O  0.79516176  0.85564186  0.29434783    -0.80500
O696        O  0.78256788  0.76360979  0.28861550    -0.79100
Zn697      Zn  0.89229547  0.75912133  0.28021578     1.55700
O698        O  0.85945983  0.87795998  0.27409478    -0.80500
Cd699      Cd  0.81422416  0.80517460  0.31999498     1.59700
Cd700      Cd  0.90828866  0.78990785  0.36483173     1.59600
O701        O  0.79650945  0.80218665  0.37764627    -0.80500
O702        O  0.87973650  0.79887828  0.31503157    -1.91000
Cd703      Cd  0.90709585  0.84463302  0.29383644     1.59900
O704        O  0.85943538  0.78595017  0.40624841    -0.80400
O705        O  0.94240318  0.83511672  0.24745414    -0.79100
C706        C  0.95785832  0.72264512  0.33363260     0.83500
C707        C  0.79714971  0.73854073  0.26637759     0.83100
O708        O  0.92492608  0.77655875  0.23440946    -0.78000
C709        C  0.81790682  0.87925464  0.27571121     0.83900
O710        O  0.93426219  0.72461828  0.30419588    -0.78100
C711        C  0.81837761  0.79389109  0.40733356     0.84000
C712        C  0.95651693  0.86750057  0.36274255     0.84400
O713        O  0.94446480  0.83745562  0.37905607    -0.80600
C714        C  0.75091705  0.96310487  0.24790041     0.03600
C715        C  0.76625727  0.96907205  0.21069722    -0.12600
C716        C  0.79778601  0.94474339  0.19499341     0.01100
C717        C  0.81291999  0.91490825  0.21670055    -0.11100
C718        C  0.79702178  0.90847806  0.25316557     0.03600
C719        C  0.76580703  0.93239391  0.26852907    -0.10500
H720        H  0.75474789  0.99280480  0.19472138     0.09200
H721        H  0.83781074  0.89654964  0.20514452     0.06700
H722        H  0.75445702  0.92803943  0.29707588     0.06500
C723        C  0.01947565  0.94985130  0.39714763     0.80700
N724        N  0.99744501  0.95552166  0.42977853    -0.77600
C725        C  0.96522163  0.93231064  0.44049165     0.83100
N726        N  0.95500177  0.90282943  0.41905982    -0.77600
C727        C  0.97520426  0.89713680  0.38583704     0.83200
N728        N  0.00786537  0.92086036  0.37418264    -0.79300
O729        O  0.17892084  0.98342163  0.46512969    -0.78100
C730        C  0.07335234  0.55704987  0.00016988     0.83000
O731        O  0.06468238  0.99439626  0.36468169    -0.79200
O732        O  0.07025349  0.62452712  0.39741526    -0.80700
O733        O  0.22179682  0.60565713  0.43199734    -0.80500
O734        O  0.23440882  0.51362547  0.43773711    -0.79100
Zn735      Zn  0.12468063  0.50912199  0.44613323     1.55700
O736        O  0.15749498  0.62796538  0.45225420    -0.80500
Cd737      Cd  0.20274583  0.55518490  0.40635505     1.59700
Cd738      Cd  0.10868753  0.53990633  0.36151621     1.59600
O739        O  0.22046412  0.55219691  0.34870435    -0.80500
O740        O  0.13723473  0.54888001  0.41131820    -1.91000
Cd741      Cd  0.10986465  0.59463025  0.43251537     1.59900
O742        O  0.15754376  0.53595048  0.32009979    -0.80400
O743        O  0.07455930  0.58510965  0.47889859    -0.79100
C744        C  0.05911669  0.97264484  0.39271730     0.83500
C745        C  0.21982974  0.98855119  0.45996989     0.83100
O746        O  0.09205277  0.52655567  0.49194420    -0.78000
C747        C  0.19904758  0.62926743  0.45063395     0.83900
O748        O  0.08271329  0.97461866  0.42215376    -0.78100
C749        C  0.19859997  0.54389724  0.31901609     0.84000
C750        C  0.06045034  0.61749564  0.36360594     0.84400
O751        O  0.07251119  0.58745356  0.34729087    -0.80600
C752        C  0.26603633  0.71311979  0.47844245     0.03600
C753        C  0.25069918  0.71908569  0.01564707    -0.12600
C754        C  0.21917018  0.69475769  0.03135085     0.01100
C755        C  0.20403293  0.66492478  0.00964237    -0.11100
C756        C  0.21992869  0.65849492  0.47317688     0.03600
C757        C  0.25114299  0.68241033  0.45781284    -0.10500
H758        H  0.26221222  0.74281723  0.03162481     0.09200
H759        H  0.17914314  0.64656538  0.02119960     0.06700
H760        H  0.26249238  0.67805529  0.42926586     0.06500
C761        C  0.47544855  0.84677269  0.09038132     0.80700
N762        N  0.45523145  0.84104619  0.05717326    -0.77600
C763        C  0.46540601  0.81152276  0.03578446     0.83100
N764        N  0.49760470  0.78829839  0.04652253    -0.77600
C765        C  0.51965893  0.79400108  0.07913638     0.83200
N766        N  0.50808174  0.82303190  0.10206557    -0.79300
O767        O  0.67909499  0.76023174  0.01127415    -0.78100
C768        C  0.57343043  0.68668732  0.47618971     0.83000
O769        O  0.56485325  0.74950109  0.11170225    -0.79200
O770        O  0.57003104  0.61933633  0.07905355    -0.80700
O771        O  0.72163273  0.63789436  0.04439548    -0.80500
O772        O  0.73451978  0.72991096  0.03861953    -0.79100
Zn773      Zn  0.62481610  0.73455676  0.03022536     1.55700
O774        O  0.65726941  0.61565465  0.02419942    -0.80500
Cd775      Cd  0.70274163  0.68841208  0.07001265     1.59700
Cd776      Cd  0.60874361  0.70389605  0.11490933     1.59600
O777        O  0.72050039  0.69138013  0.12763778    -0.80500
O778        O  0.63724470  0.69482134  0.06509190    -1.91000
Cd779      Cd  0.60972624  0.64911354  0.04392514     1.59900
O780        O  0.65766631  0.70778551  0.15629491    -0.80400
O781        O  0.57443334  0.65866826  0.49752566    -0.79100
C782        C  0.55926570  0.77116305  0.08359668     0.83500
C783        C  0.71999395  0.75503098  0.01641358     0.83100
O784        O  0.59228611  0.71712105  0.48437782    -0.78000
C785        C  0.69882317  0.61429670  0.02579807     0.83900
O786        O  0.58280856  0.76906304  0.05413735    -0.78100
C787        C  0.69870149  0.69974593  0.15733989     0.84000
C788        C  0.56026886  0.62639054  0.11286616     0.84400
O789        O  0.57243135  0.65641076  0.12917489    -0.80600
C790        C  0.76582870  0.53045198  0.49796522     0.03600
C791        C  0.75054700  0.52452778  0.46073599    -0.12600
C792        C  0.71900266  0.54884849  0.44503865     0.01100
C793        C  0.70379249  0.57863330  0.46678298    -0.11100
C794        C  0.71965514  0.58503595  0.50326353     0.03600
C795        C  0.75087850  0.56112416  0.01862054    -0.10500
H796        H  0.76211786  0.50083394  0.44473120     0.09200
H797        H  0.67890016  0.59699387  0.45523010     0.06700
H798        H  0.76221375  0.56546647  0.04717333     0.06500
C799        C  0.54152953  0.59677427  0.13596250     0.80700
N800        N  0.50889816  0.57303253  0.12427692    -0.77600
C801        C  0.49732055  0.54400234  0.14720605     0.83100
N802        N  0.51937273  0.53830115  0.17982081    -0.77600
C803        C  0.55156867  0.56152679  0.19056070     0.83200
N804        N  0.56174385  0.59104965  0.16917204    -0.79300
O805        O  0.33788657  0.51023870  0.21507162    -0.78100
C806        C  0.44353893  0.93668637  0.25015723     0.83000
O807        O  0.45212784  0.99950052  0.11464092    -0.79200
O808        O  0.44695122  0.86933816  0.14729136    -0.80700
O809        O  0.29534242  0.88790190  0.18194887    -0.80500
O810        O  0.28245978  0.97991853  0.18772972    -0.79100
Zn811      Zn  0.39216367  0.98456061  0.19611822     1.55700
O812        O  0.35970572  0.86565410  0.20213680    -0.80500
Cd813      Cd  0.31423618  0.93841955  0.15633353     1.59700
Cd814      Cd  0.40823655  0.95389683  0.11143566     1.59600
O815        O  0.29647809  0.94139083  0.09870839    -0.80500
O816        O  0.37973378  0.94482426  0.16125288    -1.91000
Cd817      Cd  0.40724996  0.89911410  0.18241753     1.59900
O818        O  0.35931402  0.95779050  0.07005159    -0.80400
O819        O  0.44253247  0.90866575  0.22882297    -0.79100
C820        C  0.45771444  0.52116395  0.14274573     0.83500
C821        C  0.29698714  0.50503871  0.20993488     0.83100
O822        O  0.42469170  0.96712298  0.24196550    -0.78000
C823        C  0.31815158  0.86430030  0.20054159     0.83900
O824        O  0.43417145  0.51906501  0.17220505    -0.78100
C825        C  0.31827799  0.94975506  0.06900655     0.84000
C826        C  0.45671036  0.87639022  0.11347779     0.84400
O827        O  0.44454582  0.90640945  0.09716866    -0.80600
C828        C  0.25114183  0.78045994  0.22837847     0.03600
C829        C  0.26609435  0.81112955  0.20772077    -0.12600
C830        C  0.29731882  0.83504109  0.22307715     0.01100
C831        C  0.31318098  0.82863991  0.25955806    -0.11100
C832        C  0.29796839  0.79885755  0.28130407     0.03600
C833        C  0.26642236  0.77453805  0.26560800    -0.10500
H834        H  0.25476083  0.81546954  0.17916914     0.09200
H835        H  0.33807491  0.84699971  0.27111015     0.06700
H836        H  0.25484931  0.75084561  0.28161475     0.06500
C837        C  0.54173955  0.64711178  0.38586170     0.80700
N838        N  0.56193687  0.65280285  0.41908661    -0.77600
C839        C  0.55171606  0.68228531  0.44051634     0.83100
N840        N  0.51949721  0.70549915  0.42979914    -0.77600
C841        C  0.49747104  0.69982999  0.39716629     0.83200
N842        N  0.50908408  0.67083899  0.37420229    -0.79300
O843        O  0.42492282  0.77658502  0.49193340    -0.78100
C844        C  0.29713243  0.73856020  0.45996690     0.83000
O845        O  0.45227641  0.74437243  0.36468224    -0.79200
O846        O  0.29651385  0.80220298  0.34868497    -0.80700
O847        O  0.35946677  0.87796600  0.45224099    -0.80500
O848        O  0.44242496  0.83513089  0.47886094    -0.79100
Zn849      Zn  0.39228237  0.75913840  0.44613478     1.55700
O850        O  0.29516544  0.85565262  0.43199049    -0.80500
Cd851      Cd  0.40709614  0.84463852  0.43248942     1.59700
Cd852      Cd  0.40828809  0.78989520  0.36150524     1.59600
O853        O  0.44669559  0.87453201  0.39738110    -0.80500
O854        O  0.37973166  0.79888222  0.41130319    -1.91000
Cd855      Cd  0.31422024  0.80518433  0.40633869     1.59900
O856        O  0.44448669  0.83743064  0.34727609    -0.80400
O857        O  0.28255519  0.76361900  0.43771500    -0.79100
C858        C  0.45783771  0.72263232  0.39272759     0.83500
C859        C  0.44363411  0.80707886  0.00014218     0.83100
O860        O  0.33804100  0.73344553  0.46514431    -0.78000
C861        C  0.31791385  0.87926282  0.45062790     0.83900
O862        O  0.43424353  0.72462436  0.42216454    -0.78100
C863        C  0.45652952  0.86748249  0.36358231     0.84000
C864        C  0.31838174  0.79390225  0.31899834     0.84400
O865        O  0.35943651  0.78594977  0.32008497    -0.80600
C866        C  0.25092606  0.96311175  0.47844391     0.03600
C867        C  0.26581163  0.93239836  0.45781659    -0.12600
C868        C  0.29703325  0.90848730  0.47317592     0.01100
C869        C  0.31294003  0.91492369  0.00963719    -0.11100
C870        C  0.29780799  0.94476043  0.03134406     0.03600
C871        C  0.26627524  0.96908555  0.01564258    -0.10500
H872        H  0.25445428  0.92803940  0.42927236     0.09200
H873        H  0.33783501  0.89656718  0.02119131     0.06700
H874        H  0.25476664  0.99282102  0.03161849     0.06500
C875        C  0.47522773  0.89711075  0.34048554     0.80700
N876        N  0.50788117  0.92083909  0.35214633    -0.77600
C877        C  0.51949233  0.94983100  0.32918357     0.83100
N878        N  0.49746615  0.95550006  0.29655091    -0.77600
C879        C  0.46525031  0.93228457  0.28583177     0.83200
N880        N  0.45503110  0.90280118  0.30726021    -0.79300
O881        O  0.59204216  0.52658604  0.23441456    -0.78100
C882        C  0.71982474  0.98854819  0.26637681     0.83000
O883        O  0.56468965  0.99437179  0.36166781    -0.79200
O884        O  0.72045631  0.55219027  0.37765765    -0.80700
O885        O  0.65750876  0.62796461  0.27410977    -0.80500
O886        O  0.57455209  0.58513589  0.24748325    -0.79100
Zn887      Zn  0.62467936  0.50913630  0.28021223     1.55700
O888        O  0.72180841  0.60564102  0.29435309    -0.80500
Cd889      Cd  0.60987608  0.59463940  0.29385830     1.59700
Cd890      Cd  0.60867825  0.53989407  0.36484134     1.59600
O891        O  0.57027445  0.62453314  0.32896597    -0.80500
O892        O  0.63723473  0.54887960  0.31504302    -1.91000
Cd893      Cd  0.70274744  0.55517485  0.32000481     1.59900
O894        O  0.57248048  0.58743110  0.37907021    -0.80400
O895        O  0.73440596  0.51360684  0.28862698    -0.79100
C896        C  0.55912518  0.97263329  0.33362147     0.83500
C897        C  0.57333839  0.55708259  0.22620353     0.83100
O898        O  0.67891546  0.98343659  0.26120184    -0.78000
C899        C  0.69906211  0.62925542  0.27571927     0.83900
O900        O  0.58271578  0.97462708  0.30418287    -0.78100
C901        C  0.56043870  0.61748342  0.36276433     0.84000
C902        C  0.69858815  0.54389309  0.40734487     0.84400
O903        O  0.65753194  0.53594640  0.40625949    -0.80600
C904        C  0.76605584  0.71309979  0.24790235     0.03600
C905        C  0.75116846  0.68238754  0.26852983    -0.12600
C906        C  0.71994538  0.65847774  0.25317071     0.01100
C907        C  0.70403862  0.66491432  0.21670936    -0.11100
C908        C  0.71917199  0.69474994  0.19500218     0.03600
C909        C  0.75070686  0.71907335  0.21070350    -0.10500
H910        H  0.76252548  0.67802879  0.29707490     0.09200
H911        H  0.67914069  0.64655812  0.20515500     0.06700
H912        H  0.76221660  0.74280893  0.19472727     0.06500
C913        C  0.04155428  0.59673168  0.59041939     0.80700
N914        N  0.00891202  0.57299707  0.60209853    -0.77600
C915        C  0.99733081  0.54396933  0.57916609     0.83100
N916        N  0.01938667  0.53826585  0.54655296    -0.77600
C917        C  0.05159274  0.56148463  0.53581934     0.83200
N918        N  0.06177316  0.59100357  0.55721211    -0.79300
O919        O  0.92467369  0.96713948  0.98437648    -0.78100
C920        C  0.79697347  0.50503671  0.51642216     0.83000
O921        O  0.95212446  0.99946433  0.61171206    -0.79200
O922        O  0.79645839  0.94137227  0.62762805    -0.80700
O923        O  0.85969743  0.86564817  0.52418678    -0.80500
O924        O  0.94251180  0.90867667  0.99749618    -0.79100
Zn925      Zn  0.89215311  0.98456382  0.53023586     1.55700
O926        O  0.79533350  0.88788508  0.54438680    -0.80500
Cd927      Cd  0.90724136  0.89910846  0.54390601     1.59700
Cd928      Cd  0.90821809  0.95387025  0.61490403     1.59600
O929        O  0.94694781  0.86932268  0.57902269    -0.80500
O930        O  0.87972056  0.94481224  0.56508403    -1.91000
Cd931      Cd  0.81422256  0.93840276  0.57000340     1.59900
O932        O  0.94451176  0.90637272  0.62916106    -0.80400
O933        O  0.78244563  0.97990263  0.53861075    -0.79100
C934        C  0.95771492  0.52114028  0.58361801     0.83500
C935        C  0.94351625  0.93670401  0.97617101     0.83100
O936        O  0.83787321  0.51024760  0.51129687    -0.78000
C937        C  0.81814395  0.86428851  0.52578824     0.83900
O938        O  0.93416775  0.51906042  0.55415968    -0.78100
C939        C  0.95668798  0.87636089  0.61284348     0.84000
C940        C  0.81825690  0.94973591  0.65733056     0.84400
O941        O  0.85929361  0.95776834  0.65628628    -0.80600
C942        C  0.75113881  0.78044518  0.99795536     0.03600
C943        C  0.76641713  0.77452368  0.96072433    -0.12600
C944        C  0.79796193  0.79884422  0.94502736     0.01100
C945        C  0.81317348  0.82862713  0.96677288    -0.11100
C946        C  0.79731304  0.83502764  0.00325439     0.03600
C947        C  0.76609149  0.81111511  0.51861226    -0.10500
H948        H  0.75484456  0.75083130  0.94471819     0.09200
H949        H  0.83806439  0.84698784  0.95522007     0.06700
H950        H  0.75475792  0.81545597  0.54716693     0.06500
C951        C  0.97542002  0.84673739  0.63593657     0.80700
N952        N  0.00806083  0.82300108  0.62425702    -0.77600
C953        C  0.01964069  0.79397336  0.64718931     0.83100
N954        N  0.99758506  0.78827124  0.67980234    -0.77600
C955        C  0.96538099  0.81149193  0.69053655     0.83200
N956        N  0.95520135  0.84101094  0.66914404    -0.79300
O957        O  0.09230079  0.71714042  0.74197697    -0.78100
C958        C  0.21999691  0.75504403  0.70992296     0.83000
O959        O  0.06484112  0.74946481  0.61464301    -0.79200
O960        O  0.22050660  0.69138241  0.59871624    -0.80700
O961        O  0.15728509  0.61565627  0.70216717    -0.80500
O962        O  0.07446593  0.65867692  0.72885592    -0.79100
Zn963      Zn  0.12481825  0.73456569  0.69611683     1.55700
O964        O  0.22164575  0.63789348  0.68196079    -0.80500
Cd965      Cd  0.10973657  0.64911023  0.68244612     1.59700
Cd966      Cd  0.10874583  0.70387052  0.61144918     1.59600
O967        O  0.07003343  0.61931908  0.64733060    -0.80500
O968        O  0.13725048  0.69481522  0.66126662    -1.91000
Cd969      Cd  0.20274859  0.68840916  0.65634231     1.59900
O970        O  0.07245396  0.65637051  0.59719390    -0.80400
O971        O  0.23452432  0.72991211  0.68773116    -0.79100
C972        C  0.05925418  0.77114213  0.64273668     0.83500
C973        C  0.07346060  0.68670405  0.75018195     0.83100
O974        O  0.17909742  0.76025145  0.71505378    -0.78000
C975        C  0.19883850  0.61429807  0.70056351     0.83900
O976        O  0.08280241  0.76906177  0.67219428    -0.78100
C977        C  0.06028542  0.62635696  0.61351153     0.84000
C978        C  0.19870352  0.69974625  0.56901620     0.84400
O979        O  0.15766562  0.70777433  0.57006434    -0.80600
C980        C  0.26584355  0.53045399  0.72839496     0.03600
C981        C  0.25089336  0.56112585  0.70774012    -0.12600
C982        C  0.21967208  0.58503891  0.72309824     0.01100
C983        C  0.20380990  0.57863736  0.75957933    -0.11100
C984        C  0.21901817  0.54885190  0.78132299     0.03600
C985        C  0.25056233  0.52453061  0.76562486    -0.10500
H986        H  0.26222757  0.56546707  0.67918575     0.09200
H987        H  0.17891935  0.59699782  0.77113223     0.06700
H988        H  0.26213288  0.50083654  0.78162927     0.06500
C989        C  0.99749878  0.69985095  0.82920357     0.80700
N990        N  0.01953216  0.70552234  0.79657454    -0.77600
C991        C  0.05175457  0.68231008  0.78586077     0.83100
N992        N  0.06197091  0.65282651  0.80729033    -0.77600
C993        C  0.04176551  0.64713288  0.84051171     0.83200
N994        N  0.00910497  0.67085751  0.85216629    -0.79300
O995        O  0.83805922  0.73341813  0.76121346    -0.78100
C996        C  0.94361915  0.80705593  0.72618409     0.83000
O997        O  0.95229311  0.74439780  0.86166757    -0.79200
O998        O  0.94670322  0.87453483  0.82893592    -0.80700
O999        O  0.79516173  0.85564181  0.79434779    -0.80500
O1000       O  0.78256795  0.76360980  0.78861537    -0.79100
Zn1001     Zn  0.89229546  0.75912135  0.78021580     1.55700
O1002       O  0.85945983  0.87795996  0.77409468    -0.80500
Cd1003     Cd  0.81422419  0.80517463  0.81999484     1.59700
Cd1004     Cd  0.90828868  0.78990786  0.86483174     1.59600
O1005       O  0.79650951  0.80218665  0.87764623    -0.80500
O1006       O  0.87973654  0.79887835  0.81503148    -1.91000
Cd1007     Cd  0.90709588  0.84463305  0.79383630     1.59900
O1008       O  0.85943537  0.78595022  0.90624835    -0.80400
O1009       O  0.94240327  0.83511670  0.74745400    -0.79100
C1010       C  0.95785826  0.72264510  0.83363270     0.83500
C1011       C  0.79714975  0.73854080  0.76637739     0.83100
O1012       O  0.92492603  0.77655872  0.73440956    -0.78000
C1013       C  0.81790682  0.87925474  0.77571137     0.83900
O1014       O  0.93426223  0.72461831  0.80419593    -0.78100
C1015       C  0.81837763  0.79389112  0.90733349     0.84000
C1016       C  0.95651695  0.86750056  0.86274240     0.84400
O1017       O  0.94446486  0.83745562  0.87905609    -0.80600
C1018       C  0.75091713  0.96310488  0.74790042     0.03600
C1019       C  0.76625729  0.96907201  0.71069727    -0.12600
C1020       C  0.79778600  0.94474336  0.69499337     0.01100
C1021       C  0.81291989  0.91490835  0.71670058    -0.11100
C1022       C  0.79702178  0.90847802  0.75316553     0.03600
C1023       C  0.76580711  0.93239394  0.76852904    -0.10500
H1024       H  0.75474792  0.99280537  0.69472140     0.09200
H1025       H  0.83781149  0.89654861  0.70514382     0.06700
H1026       H  0.75445716  0.92803952  0.79707580     0.06500
C1027       C  0.01947569  0.94985135  0.89714761     0.80700
N1028       N  0.99744507  0.95552164  0.92977850    -0.77600
C1029       C  0.96522160  0.93231065  0.94049162     0.83100
N1030       N  0.95500165  0.90282945  0.91905977    -0.77600
C1031       C  0.97520425  0.89713681  0.88583697     0.83200
N1032       N  0.00786550  0.92086035  0.87418266    -0.79300
O1033       O  0.17892091  0.98342174  0.96512969    -0.78100
C1034       C  0.07335232  0.55704995  0.50016994     0.83000
O1035       O  0.06468236  0.99439624  0.86468175    -0.79200
O1036       O  0.07025359  0.62452705  0.89741537    -0.80700
O1037       O  0.22179694  0.60565709  0.93199720    -0.80500
O1038       O  0.23440881  0.51362542  0.93773697    -0.79100
Zn1039     Zn  0.12468067  0.50912199  0.94613314     1.55700
O1040       O  0.15749498  0.62796539  0.95225418    -0.80500
Cd1041     Cd  0.20274587  0.55518490  0.90635491     1.59700
Cd1042     Cd  0.10868753  0.53990635  0.86151622     1.59600
O1043       O  0.22046420  0.55219695  0.84870425    -0.80500
O1044       O  0.13723482  0.54887993  0.91131803    -1.91000
Cd1045     Cd  0.10986463  0.59463010  0.93251538     1.59900
O1046       O  0.15754378  0.53595051  0.82009982    -0.80400
O1047       O  0.07455924  0.58510959  0.97889866    -0.79100
C1048       C  0.05911674  0.97264483  0.89271736     0.83500
C1049       C  0.21982978  0.98855117  0.95996974     0.83100
O1050       O  0.09205295  0.52655566  0.99194402    -0.78000
C1051       C  0.19904762  0.62926728  0.95063397     0.83900
O1052       O  0.08271334  0.97461866  0.92215383    -0.78100
C1053       C  0.19859999  0.54389724  0.81901606     0.84000
C1054       C  0.06045031  0.61749559  0.86360606     0.84400
O1055       O  0.07251120  0.58745357  0.84729091    -0.80600
C1056       C  0.26603632  0.71311978  0.97844251     0.03600
C1057       C  0.25069918  0.71908567  0.51564705    -0.12600
C1058       C  0.21917016  0.69475772  0.53135099     0.01100
C1059       C  0.20403295  0.66492485  0.50964250    -0.11100
C1060       C  0.21992857  0.65849490  0.97317674     0.03600
C1061       C  0.25114295  0.68241031  0.95781280    -0.10500
H1062       H  0.26221230  0.74281724  0.53162476     0.09200
H1063       H  0.17914311  0.64656530  0.52119969     0.06700
H1064       H  0.26249239  0.67805530  0.92926599     0.06500
C1065       C  0.47544859  0.84677273  0.59038130     0.80700
N1066       N  0.45523139  0.84104616  0.55717329    -0.77600
C1067       C  0.46540600  0.81152272  0.53578446     0.83100
N1068       N  0.49760467  0.78829830  0.54652259    -0.77600
C1069       C  0.51965897  0.79400113  0.57913636     0.83200
N1070       N  0.50808159  0.82303182  0.60206558    -0.79300
O1071       O  0.67909499  0.76023172  0.51127413    -0.78100
C1072       C  0.57343040  0.68668735  0.97618969     0.83000
O1073       O  0.56485323  0.74950112  0.61170232    -0.79200
O1074       O  0.57003107  0.61933637  0.57905354    -0.80700
O1075       O  0.72163281  0.63789433  0.54439541    -0.80500
O1076       O  0.73451985  0.72991100  0.53861940    -0.79100
Zn1077     Zn  0.62481609  0.73455678  0.53022539     1.55700
O1078       O  0.65726923  0.61565460  0.52419939    -0.80500
Cd1079     Cd  0.70274162  0.68841208  0.57001254     1.59700
Cd1080     Cd  0.60874363  0.70389607  0.61490936     1.59600
O1081       O  0.72050028  0.69138003  0.62763763    -0.80500
O1082       O  0.63724470  0.69482138  0.56509188    -1.91000
Cd1083     Cd  0.60972624  0.64911357  0.54392516     1.59900
O1084       O  0.65766643  0.70778558  0.65629488    -0.80400
O1085       O  0.57443330  0.65866828  0.99752562    -0.79100
C1086       C  0.55926568  0.77116309  0.58359675     0.83500
C1087       C  0.71999396  0.75503108  0.51641361     0.83100
O1088       O  0.59228609  0.71712107  0.98437779    -0.78000
C1089       C  0.69882308  0.61429667  0.52579805     0.83900
O1090       O  0.58280849  0.76906310  0.55413741    -0.78100
C1091       C  0.69870153  0.69974579  0.65733986     0.84000
C1092       C  0.56026889  0.62639054  0.61286618     0.84400
O1093       O  0.57243136  0.65641077  0.62917490    -0.80600
C1094       C  0.76582880  0.53045198  0.99796501     0.03600
C1095       C  0.75054698  0.52452789  0.96073598    -0.12600
C1096       C  0.71900265  0.54884847  0.94503858     0.01100
C1097       C  0.70379244  0.57863331  0.96678293    -0.11100
C1098       C  0.71965510  0.58503596  0.00326339     0.03600
C1099       C  0.75087850  0.56112415  0.51862054    -0.10500
H1100       H  0.76211849  0.50083327  0.94473045     0.09200
H1101       H  0.67890009  0.59699388  0.95523000     0.06700
H1102       H  0.76221439  0.56546671  0.54717517     0.06500
C1103       C  0.54152952  0.59677427  0.63596261     0.80700
N1104       N  0.50889819  0.57303251  0.62427697    -0.77600
C1105       C  0.49732049  0.54400236  0.64720608     0.83100
N1106       N  0.51937266  0.53830117  0.67982083    -0.77600
C1107       C  0.55156859  0.56152684  0.69056077     0.83200
N1108       N  0.56174388  0.59104962  0.66917212    -0.79300
O1109       O  0.33788654  0.51023868  0.71507174    -0.78100
C1110       C  0.44353902  0.93668643  0.75015731     0.83000
O1111       O  0.45212783  0.99950053  0.61464091    -0.79200
O1112       O  0.44695107  0.86933815  0.64729138    -0.80700
O1113       O  0.29534244  0.88790193  0.68194890    -0.80500
O1114       O  0.28245969  0.97991850  0.68772977    -0.79100
Zn1115     Zn  0.39216368  0.98456044  0.69611822     1.55700
O1116       O  0.35970574  0.86565412  0.70213686    -0.80500
Cd1117     Cd  0.31423616  0.93841956  0.65633355     1.59700
Cd1118     Cd  0.40823654  0.95389685  0.61143553     1.59600
O1119       O  0.29647813  0.94139089  0.59870842    -0.80500
O1120       O  0.37973402  0.94482431  0.66125267    -1.91000
Cd1121     Cd  0.40724996  0.89911410  0.68241753     1.59900
O1122       O  0.35931380  0.95779047  0.57005157    -0.80400
O1123       O  0.44253265  0.90866586  0.72882311    -0.79100
C1124       C  0.45771449  0.52116387  0.64274573     0.83500
C1125       C  0.29698709  0.50503863  0.70993496     0.83100
O1126       O  0.42469167  0.96712294  0.74196550    -0.78000
C1127       C  0.31815162  0.86430033  0.70054163     0.83900
O1128       O  0.43417155  0.51906497  0.67220512    -0.78100
C1129       C  0.31827786  0.94975504  0.56900653     0.84000
C1130       C  0.45671045  0.87639026  0.61347784     0.84400
O1131       O  0.44454572  0.90640936  0.59716858    -0.80600
C1132       C  0.25114189  0.78045997  0.72837828     0.03600
C1133       C  0.26609450  0.81112956  0.70772092    -0.12600
C1134       C  0.29731882  0.83504110  0.72307711     0.01100
C1135       C  0.31318093  0.82863986  0.75955808    -0.11100
C1136       C  0.29796839  0.79885744  0.78130397     0.03600
C1137       C  0.26642229  0.77453805  0.76560783    -0.10500
H1138       H  0.25476040  0.81546979  0.67916714     0.09200
H1139       H  0.33807481  0.84699961  0.77111018     0.06700
H1140       H  0.25484914  0.75084561  0.78161447     0.06500
C1141       C  0.54173952  0.64711175  0.88586171     0.80700
N1142       N  0.56193683  0.65280285  0.91908660    -0.77600
C1143       C  0.55171613  0.68228535  0.94051633     0.83100
N1144       N  0.51949729  0.70549920  0.92979920    -0.77600
C1145       C  0.49747113  0.69983000  0.89716630     0.83200
N1146       N  0.50908407  0.67083893  0.87420229    -0.79300
O1147       O  0.42492278  0.77658509  0.99193340    -0.78100
C1148       C  0.29713243  0.73856024  0.95996689     0.83000
O1149       O  0.45227647  0.74437236  0.86468225    -0.79200
O1150       O  0.29651382  0.80220284  0.84868487    -0.80700
O1151       O  0.35946681  0.87796600  0.95224103    -0.80500
O1152       O  0.44242510  0.83513088  0.97886103    -0.79100
Zn1153     Zn  0.39228238  0.75913842  0.94613481     1.55700
O1154       O  0.29516552  0.85565259  0.93199040    -0.80500
Cd1155     Cd  0.40709616  0.84463853  0.93248944     1.59700
Cd1156     Cd  0.40828810  0.78989504  0.86150527     1.59600
O1157       O  0.44669560  0.87453202  0.89738114    -0.80500
O1158       O  0.37973167  0.79888219  0.91130315    -1.91000
Cd1159     Cd  0.31422026  0.80518434  0.90633857     1.59900
O1160       O  0.44448663  0.83743054  0.84727618    -0.80400
O1161       O  0.28255527  0.76361906  0.93771492    -0.79100
C1162       C  0.45783776  0.72263227  0.89272760     0.83500
C1163       C  0.44363409  0.80707884  0.50014212     0.83100
O1164       O  0.33804098  0.73344555  0.96514432    -0.78000
C1165       C  0.31791386  0.87926278  0.95062793     0.83900
O1166       O  0.43424359  0.72462436  0.92216456    -0.78100
C1167       C  0.45652947  0.86748245  0.86358235     0.84000
C1168       C  0.31838175  0.79390214  0.81899826     0.84400
O1169       O  0.35943650  0.78594956  0.82008496    -0.80600
C1170       C  0.25092608  0.96311181  0.97844380     0.03600
C1171       C  0.26581157  0.93239840  0.95781660    -0.12600
C1172       C  0.29703304  0.90848737  0.97317589     0.01100
C1173       C  0.31294000  0.91492368  0.50963714    -0.11100
C1174       C  0.29780798  0.94476028  0.53134405     0.03600
C1175       C  0.26627520  0.96908561  0.51564270    -0.10500
H1176       H  0.25445373  0.92803914  0.92927215     0.09200
H1177       H  0.33783678  0.89656604  0.52119210     0.06700
H1178       H  0.25476649  0.99282021  0.53161859     0.06500
C1179       C  0.47522769  0.89711074  0.84048555     0.80700
N1180       N  0.50788122  0.92083909  0.85214630    -0.77600
C1181       C  0.51949228  0.94983108  0.82918361     0.83100
N1182       N  0.49746623  0.95550000  0.79655088    -0.77600
C1183       C  0.46525042  0.93228449  0.78583174     0.83200
N1184       N  0.45503107  0.90280112  0.80726020    -0.79300
O1185       O  0.59204208  0.52658604  0.73441450    -0.78100
C1186       C  0.71982481  0.98854813  0.76637694     0.83000
O1187       O  0.56468966  0.99437179  0.86166778    -0.79200
O1188       O  0.72045630  0.55219030  0.87765764    -0.80700
O1189       O  0.65750878  0.62796464  0.77410981    -0.80500
O1190       O  0.57455204  0.58513592  0.74748333    -0.79100
Zn1191     Zn  0.62467937  0.50913632  0.78021210     1.55700
O1192       O  0.72180844  0.60564106  0.79435312    -0.80500
Cd1193     Cd  0.60987609  0.59463942  0.79385832     1.59700
Cd1194     Cd  0.60867828  0.53989407  0.86484118     1.59600
O1195       O  0.57027442  0.62453315  0.82896601    -0.80500
O1196       O  0.63723479  0.54887958  0.81504292    -1.91000
Cd1197     Cd  0.70274747  0.55517487  0.82000483     1.59900
O1198       O  0.57248044  0.58743112  0.87907016    -0.80400
O1199       O  0.73440598  0.51360695  0.78862700    -0.79100
C1200       C  0.55912522  0.97263325  0.83362148     0.83500
C1201       C  0.57333852  0.55708267  0.72620348     0.83100
O1202       O  0.67891556  0.98343655  0.76120172    -0.78000
C1203       C  0.69906212  0.62925545  0.77571929     0.83900
O1204       O  0.58271578  0.97462702  0.80418284    -0.78100
C1205       C  0.56043878  0.61748348  0.86276437     0.84000
C1206       C  0.69858809  0.54389312  0.90734482     0.84400
O1207       O  0.65753188  0.53594643  0.90625936    -0.80600
C1208       C  0.76605588  0.71309978  0.74790227     0.03600
C1209       C  0.75116846  0.68238757  0.76852982    -0.12600
C1210       C  0.71994543  0.65847778  0.75317076     0.01100
C1211       C  0.70403865  0.66491429  0.71670937    -0.11100
C1212       C  0.71917208  0.69474997  0.69500228     0.03600
C1213       C  0.75070688  0.71907336  0.71070349    -0.10500
H1214       H  0.76252553  0.67802885  0.79707494     0.09200
H1215       H  0.67914155  0.64655905  0.70515543     0.06700
H1216       H  0.76221651  0.74280883  0.69472729     0.06500
loop_ 
_geom_bond_atom_site_label_1 
_geom_bond_atom_site_label_2 
_geom_bond_distance 
_geom_bond_site_symmetry_2 
_ccdc_geom_bond_type 
C1            N2   1.374       .  A
C1            N6   1.348       .  A
C1           C65   1.461       .  S
N2            C3   1.371   1_455  A
C3            N4   1.356   1_655  A
C3           C22   1.467       .  S
N4            C5   1.343       .  A
C5            N6   1.342       .  A
C5          C122   1.440       .  S
O7           C23   1.269       .  A
O7         Zn317   2.009       .  S
C8          C486   1.471   1_554  S
C8           O24   1.271       .  A
C8          O629   1.279   1_545  A
O9          C630   1.279       .  A
O9          Cd16   2.117       .  S
O10          C28   1.284       .  A
O10         Cd19   2.124       .  S
O11          C25   1.266       .  A
O11         Cd15   2.008       .  S
O12          C23   1.262       .  A
O12        Cd319   1.999       .  S
Zn13        O311   2.009   1_554  S
Zn13        O632   2.008       .  S
Zn13        O634   1.974       .  S
Zn13         O18   1.929       .  S
O14          C25   1.280       .  A
O14         Cd19   2.111       .  S
Cd15         O17   2.041       .  S
Cd15        O316   1.999   1_554  S
Cd15         O18   1.992       .  S
Cd16         O20   2.095       .  S
Cd16         O29   2.099       .  S
Cd16         O18   2.000       .  S
O17          C27   1.265       .  A
O18         Cd19   2.014       .  S
Cd19         O21   2.099       .  S
O20          C27   1.280       .  A
O21         C616   1.279       .  A
C22          O26   1.272       .  A
C22         O617   1.279   1_545  A
C23         C117   1.440       .  S
O24        Zn621   2.008   1_545  S
C25         C338   1.467       .  S
O26        Zn621   1.974   1_545  S
C27          C39   1.461       .  S
C28         C108   1.489       .  S
C28          O29   1.282       .  A
C30         C479   1.471       .  S
C30          C31   1.420       .  A
C30         C339   1.401       .  A
C31          C32   1.413       .  A
C31          H36   1.083       .  S
C32         C103   1.489       .  S
C32          C33   1.400       .  A
C33          C34   1.404       .  A
C33          H37   1.085       .  S
C34         C329   1.467       .  S
C34         C339   1.393       .  A
C35         C334   1.401   1_554  A
C35         C338   1.393       .  A
C35          H38   1.084       .  S
C39          N40   1.374   1_655  A
C39          N44   1.348       .  A
N40          C41   1.371       .  A
C41          N42   1.356   1_455  A
C41          C60   1.467       .  S
N42          C43   1.343       .  A
C43          N44   1.342       .  A
C43          C84   1.440       .  S
O45          C61   1.269       .  A
O45         Zn51   2.009       .  S
C46         C220   1.471       .  S
C46          O62   1.271       .  A
C46          O59   1.279       .  A
O47          C60   1.279       .  A
O47         Cd54   2.117       .  S
O48          C66   1.284       .  A
O48         Cd57   2.124       .  S
O49          C63   1.266       .  A
O49         Cd53   2.008       .  S
O50          C61   1.262       .  A
O50         Cd53   1.999       .  S
Zn51         O62   2.008       .  S
Zn51         O64   1.974       .  S
Zn51         O56   1.929       .  S
O52          C63   1.280       .  A
O52         Cd57   2.111       .  S
Cd53         O55   2.041       .  S
Cd53         O56   1.992       .  S
Cd54         O58   2.095       .  S
Cd54         O67   2.099       .  S
Cd54         O56   2.000       .  S
O55          C65   1.265       .  A
O56         Cd57   2.014       .  S
Cd57         O59   2.099       .  S
O58          C65   1.280       .  A
C60          O64   1.272       .  A
C61          C79   1.440       .  S
C63          C70   1.467       .  S
C66         C146   1.489       .  S
C66          O67   1.282       .  A
C68         C213   1.471       .  S
C68          C69   1.401       .  A
C68          C73   1.420       .  A
C69          C70   1.393       .  A
C69          H74   1.085       .  S
C70          C71   1.404       .  A
C71          C72   1.400       .  A
C71          H75   1.085       .  S
C72         C141   1.489       .  S
C72          C73   1.413       .  A
C73          H76   1.083       .  S
C77          N78   1.356   1_655  A
C77          N82   1.371   1_655  A
C77          C98   1.466       .  S
N78          C79   1.343       .  A
C79          N80   1.342       .  A
N80          C81   1.348       .  A
C81          N82   1.373       .  A
C81         C142   1.461       .  S
O83          C99   1.272       .  A
O83         Zn89   2.008       .  S
C84         O100   1.269       .  A
C84          O97   1.262       .  A
O85          C98   1.279       .  A
O85         Cd92   2.117       .  S
O86         C104   1.265       .  A
O86         Cd95   2.041       .  S
O87         C101   1.280       .  A
O87         Cd91   2.112       .  S
O88          C99   1.279       .  A
O88         Cd91   2.099       .  S
Zn89        O100   2.009       .  S
Zn89        O102   1.974       .  S
Zn89         O94   1.930       .  S
O90         C101   1.266       .  A
O90         Cd95   2.007       .  S
Cd91         O93   2.124       .  S
Cd91         O94   2.014       .  S
Cd92         O96   2.098       .  S
Cd92        O105   2.095       .  S
Cd92         O94   2.000       .  S
O93         C103   1.284       .  A
O94         Cd95   1.992       .  S
Cd95         O97   1.999       .  S
O96         C103   1.282       .  A
C98         O102   1.272       .  A
C99         C296   1.471       .  S
C101        C110   1.467       .  S
C104        C119   1.461       .  S
C104        O105   1.280       .  A
C106        C274   1.471       .  S
C106        C107   1.420       .  A
C106        C111   1.401       .  A
C107        C108   1.413       .  A
C107        H112   1.083       .  S
C108        C109   1.400       .  A
C109        C110   1.404       .  A
C109        H113   1.085       .  S
C110        C111   1.393       .  A
C111        H114   1.084       .  S
C115        N116   1.356   1_455  A
C115        N120   1.371       .  A
C115        C136   1.466       .  S
N116        C117   1.343       .  A
C117        N118   1.342       .  A
N118        C119   1.348       .  A
C119        N120   1.373   1_655  A
O121        C137   1.272       .  A
O121       Zn735   2.008       .  S
C122        O442   1.269   1_554  A
C122        O439   1.262   1_554  A
O123        C136   1.279       .  A
O123       Cd738   2.117       .  S
O124        C142   1.265       .  A
O124       Cd133   2.041       .  S
O125        C139   1.280       .  A
O125       Cd129   2.112       .  S
O126        C745   1.279   1_545  A
O126       Cd129   2.099       .  S
Zn127       O138   2.009       .  S
Zn127       O729   2.008   1_545  S
Zn127       O748   1.974   1_545  S
Zn127       O132   1.930       .  S
O128        C139   1.266       .  A
O128       Cd133   2.007       .  S
Cd129       O131   2.124       .  S
Cd129       O132   2.014       .  S
Cd130       O134   2.098       .  S
Cd130       O143   2.095       .  S
Cd130       O731   2.117   1_545  S
Cd130       O132   2.000       .  S
O131        C141   1.284       .  A
O132       Cd133   1.992       .  S
Cd133       O135   1.999       .  S
O134        C141   1.282       .  A
O135        C426   1.262       .  A
C136        O140   1.272       .  A
C137        C258   1.471       .  S
C137        O734   1.279       .  A
O138        C426   1.269       .  A
C139        C148   1.467       .  S
O140       Zn735   1.974       .  S
C142        O143   1.280       .  A
C144        C236   1.471       .  S
C144        C149   1.401       .  A
C144        C449   1.420       .  A
C145        C146   1.413       .  A
C145        C448   1.420   1_554  A
C145        H150   1.083       .  S
C146        C147   1.400       .  A
C147        C452   1.404   1_554  A
C147        H151   1.085       .  S
C148        C149   1.393       .  A
C148        C451   1.404       .  A
C149        H152   1.084       .  S
C153        N154   1.348       .  A
C153        N158   1.374       .  A
C153        C218   1.461       .  S
N154        C155   1.342       .  A
C155        N156   1.343       .  A
C155        C251   1.440       .  S
N156        C157   1.356       .  A
C157        N158   1.371       .  A
C157        C174   1.467       .  S
O159        C175   1.271       .  A
O159       Zn165   2.008       .  S
C160        C231   1.440       .  S
C160        O176   1.269       .  A
C160        O173   1.262       .  A
O161        C174   1.279       .  A
O161       Cd168   2.117       .  S
O162        C180   1.265       .  A
O162       Cd171   2.041       .  S
O163        C177   1.280       .  A
O163       Cd167   2.111       .  S
O164        C175   1.279       .  A
O164       Cd167   2.099       .  S
Zn165       O178   1.974       .  S
Zn165       O480   2.009   1_554  S
Zn165       O170   1.929       .  S
O166        C177   1.266       .  A
O166       Cd171   2.008       .  S
Cd167       O169   2.124       .  S
Cd167       O170   2.014       .  S
Cd168       O172   2.099       .  S
Cd168       O181   2.095       .  S
Cd168       O170   2.000       .  S
O169        C179   1.284       .  A
O170       Cd171   1.992       .  S
Cd171       O477   1.999   1_554  S
O172        C179   1.282       .  A
O173       Cd475   1.999       .  S
C174        O178   1.272       .  A
C175        C334   1.471   1_554  S
O176       Zn469   2.009       .  S
C177        C490   1.467       .  S
C179        C300   1.489       .  S
C180        C191   1.461       .  S
C180        O181   1.280       .  A
C182        C312   1.471       .  S
C182        C183   1.420       .  A
C182        C491   1.401       .  A
C183        C184   1.413       .  A
C183        H188   1.083       .  S
C184        C294   1.489       .  S
C184        C185   1.400       .  A
C185        C186   1.404       .  A
C185        H189   1.085       .  S
C186        C481   1.467       .  S
C186        C491   1.393       .  A
C187        C486   1.401   1_554  A
C187        C490   1.393       .  A
C187        H190   1.084       .  S
C191        N192   1.374       .  A
C191        N196   1.348       .  A
N192        C193   1.371       .  A
C193        N194   1.356       .  A
C193        C212   1.467       .  S
N194        C195   1.343       .  A
C195        N196   1.342       .  A
C195        C289   1.440       .  S
O197        C213   1.271       .  A
O197       Zn811   2.008   1_545  S
C198        C271   1.440       .  S
C198        O214   1.269       .  A
C198        O211   1.262       .  A
O199        C820   1.279       .  A
O199       Cd206   2.117       .  S
O200        C218   1.265       .  A
O200       Cd209   2.041       .  S
O201        C215   1.280       .  A
O201       Cd205   2.111       .  S
O202        C821   1.279       .  A
O202       Cd205   2.099       .  S
Zn203       O214   2.009       .  S
Zn203       O805   2.008       .  S
Zn203       O824   1.974       .  S
Zn203       O208   1.929       .  S
O204        C215   1.266       .  A
O204       Cd209   2.008       .  S
Cd205       O207   2.124       .  S
Cd205       O208   2.014       .  S
Cd206       O210   2.099       .  S
Cd206       O219   2.095       .  S
Cd206       O208   2.000       .  S
O207        C217   1.284       .  A
O208       Cd209   1.992       .  S
Cd209       O211   1.999       .  S
O210        C217   1.282       .  A
C212        O216   1.272       .  A
C212        O807   1.279   1_545  A
C213        O810   1.279   1_545  A
C215        C222   1.467       .  S
O216       Zn811   1.974   1_545  S
C217        C262   1.489       .  S
C218        O219   1.280       .  A
C220        C221   1.401       .  A
C220        C225   1.420       .  A
C221        C222   1.393       .  A
C221        H226   1.084       .  S
C222        C223   1.404       .  A
C223        C224   1.400       .  A
C223        H227   1.085       .  S
C224        C256   1.489       .  S
C224        C225   1.413       .  A
C225        H228   1.083       .  S
C229        N230   1.348       .  A
C229        N234   1.373       .  A
C229        C293   1.461       .  S
N230        C231   1.342       .  A
C231        N232   1.343       .  A
N232        C233   1.356       .  A
C233        N234   1.371       .  A
C233        C250   1.466       .  S
O235        C555   1.269       .  A
O235       Zn241   2.009       .  S
C236        O252   1.272       .  A
C236        O249   1.279       .  A
O237        C250   1.279       .  A
O237       Cd244   2.117       .  S
O238        C256   1.284       .  A
O238       Cd247   2.124       .  S
O239        C253   1.266       .  A
O239       Cd243   2.007       .  S
O240        C555   1.262       .  A
O240       Cd243   1.999       .  S
Zn241       O252   2.008       .  S
Zn241       O254   1.974       .  S
Zn241       O246   1.930       .  S
O242        C253   1.280       .  A
O242       Cd247   2.112       .  S
Cd243       O245   2.041       .  S
Cd243       O246   1.992       .  S
Cd244       O248   2.095       .  S
Cd244       O257   2.098       .  S
Cd244       O246   2.000       .  S
O245        C255   1.265       .  A
O246       Cd247   2.014       .  S
Cd247       O249   2.099       .  S
O248        C255   1.280       .  A
C250        O254   1.272       .  A
C251        O539   1.269   1_554  A
C251        O544   1.262   1_554  A
C253        C260   1.467       .  S
C255        C267   1.461       .  S
C256        O257   1.282       .  A
C258        C259   1.401       .  A
C258        C567   1.420       .  A
C259        C260   1.393       .  A
C259        H264   1.084       .  S
C260        C565   1.404       .  A
C261        C262   1.400       .  A
C261        C564   1.404   1_554  A
C261        H265   1.085       .  S
C262        C263   1.413       .  A
C263        C562   1.420   1_554  A
C263        H266   1.083       .  S
C267        N268   1.373       .  A
C267        N272   1.348       .  A
N268        C269   1.371       .  A
C269        N270   1.356       .  A
C269        C288   1.466       .  S
N270        C271   1.343       .  A
C271        N272   1.342       .  A
O273        C289   1.269       .  A
O273       Zn279   2.009       .  S
C274        O290   1.272       .  A
C274        O895   1.279       .  A
O275        C288   1.279       .  A
O275       Cd890   2.117       .  S
O276        C294   1.284       .  A
O276       Cd285   2.124       .  S
O277        C291   1.266       .  A
O277       Cd281   2.007       .  S
O278        C289   1.262       .  A
O278       Cd281   1.999       .  S
Zn279       O898   2.008   1_545  S
Zn279       O900   1.974   1_545  S
Zn279       O284   1.930       .  S
O280        C291   1.280       .  A
O280       Cd285   2.112       .  S
Cd281       O283   2.041       .  S
Cd281       O284   1.992       .  S
Cd282       O286   2.095       .  S
Cd282       O295   2.098       .  S
Cd282       O883   2.117   1_545  S
Cd282       O284   2.000       .  S
O283        C293   1.265       .  A
O284       Cd285   2.014       .  S
Cd285       O287   2.099       .  S
O286        C293   1.280       .  A
O287        C882   1.279   1_545  A
C288        O292   1.272       .  A
O290       Zn887   2.008       .  S
C291        C298   1.467       .  S
O292       Zn887   1.974       .  S
C294        O295   1.282       .  A
C296        C297   1.401       .  A
C296        C301   1.420       .  A
C297        C298   1.393       .  A
C297        H302   1.084       .  S
C298        C299   1.404       .  A
C299        C300   1.400       .  A
C299        H303   1.085       .  S
C300        C301   1.413       .  A
C301        H304   1.083       .  S
C305        N306   1.374       .  A
C305        N310   1.348       .  A
C305        C369   1.461       .  S
N306        C307   1.371   1_455  A
C307        N308   1.356   1_655  A
C307        C326   1.467       .  S
N308        C309   1.343       .  A
C309        N310   1.342       .  A
C309        C426   1.440       .  S
O311        C327   1.269       .  A
C312        O328   1.271       .  A
C312        O933   1.279   1_545  A
O313        C934   1.279       .  A
O313       Cd320   2.117       .  S
O314        C332   1.284       .  A
O314       Cd323   2.124       .  S
O315        C329   1.266       .  A
O315       Cd319   2.008       .  S
O316        C327   1.262       .  A
Zn317       O936   2.008       .  S
Zn317       O938   1.974       .  S
Zn317       O322   1.929       .  S
O318        C329   1.280       .  A
O318       Cd323   2.111       .  S
Cd319       O321   2.041       .  S
Cd319       O322   1.992       .  S
Cd320       O324   2.095       .  S
Cd320       O333   2.099       .  S
Cd320       O322   2.000       .  S
O321        C331   1.265       .  A
O322       Cd323   2.014       .  S
Cd323       O325   2.099       .  S
O324        C331   1.280       .  A
O325        C920   1.279       .  A
C326        O921   1.279   1_545  A
C326        O330   1.272       .  A
C327        C421   1.440       .  S
O328       Zn925   2.008   1_545  S
O330       Zn925   1.974   1_545  S
C331        C343   1.461       .  S
C332        C412   1.489       .  S
C332        O333   1.282       .  A
C334        C335   1.420       .  A
C335        C336   1.413       .  A
C335        H340   1.083       .  S
C336        C407   1.489       .  S
C336        C337   1.400       .  A
C337        C338   1.404   1_556  A
C337        H341   1.085       .  S
C339        H342   1.084       .  S
C343        N344   1.374   1_655  A
C343        N348   1.348       .  A
N344        C345   1.371       .  A
C345        N346   1.356   1_455  A
C345        C364   1.467       .  S
N346        C347   1.343       .  A
C347        N348   1.342       .  A
C347        C388   1.440       .  S
O349        C365   1.269       .  A
O349       Zn355   2.009       .  S
C350        C524   1.471       .  S
C350        O366   1.271       .  A
C350        O363   1.279       .  A
O351        C364   1.279       .  A
O351       Cd358   2.117       .  S
O352        C370   1.284       .  A
O352       Cd361   2.124       .  S
O353        C367   1.266       .  A
O353       Cd357   2.008       .  S
O354        C365   1.262       .  A
O354       Cd357   1.999       .  S
Zn355       O366   2.008       .  S
Zn355       O368   1.974       .  S
Zn355       O360   1.929       .  S
O356        C367   1.280       .  A
O356       Cd361   2.111       .  S
Cd357       O359   2.041       .  S
Cd357       O360   1.992       .  S
Cd358       O362   2.095       .  S
Cd358       O371   2.099       .  S
Cd358       O360   2.000       .  S
O359        C369   1.265       .  A
O360       Cd361   2.014       .  S
Cd361       O363   2.099       .  S
O362        C369   1.280       .  A
C364        O368   1.272       .  A
C365        C383   1.440       .  S
C367        C374   1.467       .  S
C370        C450   1.489       .  S
C370        O371   1.282       .  A
C372        C517   1.471       .  S
C372        C373   1.401       .  A
C372        C377   1.420       .  A
C373        C374   1.393       .  A
C373        H378   1.084       .  S
C374        C375   1.404       .  A
C375        C376   1.400       .  A
C375        H379   1.085       .  S
C376        C445   1.489       .  S
C376        C377   1.413       .  A
C377        H380   1.083       .  S
C381        N382   1.356   1_655  A
C381        N386   1.371   1_655  A
C381        C402   1.466       .  S
N382        C383   1.343       .  A
C383        N384   1.342       .  A
N384        C385   1.348       .  A
C385        N386   1.373       .  A
C385        C446   1.461       .  S
O387        C403   1.272       .  A
O387       Zn393   2.008       .  S
C388        O404   1.269       .  A
C388        O401   1.262       .  A
O389        C402   1.279       .  A
O389       Cd396   2.117       .  S
O390        C408   1.265       .  A
O390       Cd399   2.041       .  S
O391        C405   1.280       .  A
O391       Cd395   2.112       .  S
O392        C403   1.279       .  A
O392       Cd395   2.099       .  S
Zn393       O404   2.009       .  S
Zn393       O406   1.974       .  S
Zn393       O398   1.930       .  S
O394        C405   1.266       .  A
O394       Cd399   2.007       .  S
Cd395       O397   2.124       .  S
Cd395       O398   2.014       .  S
Cd396       O400   2.098       .  S
Cd396       O409   2.095       .  S
Cd396       O398   2.000       .  S
O397        C407   1.284       .  A
O398       Cd399   1.992       .  S
Cd399       O401   1.999       .  S
O400        C407   1.282       .  A
C402        O406   1.272       .  A
C403        C600   1.471       .  S
C405        C414   1.467       .  S
C408        C423   1.461       .  S
C408        O409   1.280       .  A
C410        C578   1.471       .  S
C410        C411   1.420       .  A
C410        C415   1.401       .  A
C411        C412   1.413       .  A
C411        H416   1.083       .  S
C412        C413   1.400       .  A
C413        C414   1.404       .  A
C413        H417   1.085       .  S
C414        C415   1.393       .  A
C415        H418   1.084       .  S
C419        N420   1.356   1_455  A
C419        N424   1.371       .  A
C419        C440   1.466       .  S
N420        C421   1.343       .  A
C421        N422   1.342       .  A
N422        C423   1.348       .  A
C423        N424   1.373   1_655  A
O425        C441   1.272       .  A
O425      Zn1039   2.008       .  S
O427        C440   1.279       .  A
O427      Cd1042   2.117       .  S
O428        C446   1.265       .  A
O428       Cd437   2.041       .  S
O429        C443   1.280       .  A
O429       Cd433   2.112       .  S
O430       C1049   1.279   1_545  A
O430       Cd433   2.099       .  S
Zn431      O1033   2.008   1_545  S
Zn431       O442   2.009       .  S
Zn431      O1052   1.974   1_545  S
Zn431       O436   1.930       .  S
O432        C443   1.266       .  A
O432       Cd437   2.007       .  S
Cd433       O435   2.124       .  S
Cd433       O436   2.014       .  S
Cd434      O1035   2.117   1_545  S
Cd434       O438   2.098       .  S
Cd434       O447   2.095       .  S
Cd434       O436   2.000       .  S
O435        C445   1.284       .  A
O436       Cd437   1.992       .  S
Cd437       O439   1.999       .  S
O438        C445   1.282       .  A
C440        O444   1.272       .  A
C441        C562   1.471       .  S
C441       O1038   1.279       .  A
C443        C452   1.467       .  S
O444      Zn1039   1.974       .  S
C446        O447   1.280       .  A
C448        C540   1.471       .  S
C448        C453   1.401       .  A
C449        C450   1.413       .  A
C449        H454   1.083       .  S
C450        C451   1.400       .  A
C451        H455   1.085       .  S
C452        C453   1.393       .  A
C453        H456   1.084       .  S
C457        N458   1.348       .  A
C457        N462   1.374       .  A
C457        C522   1.461       .  S
N458        C459   1.342       .  A
C459        N460   1.343       .  A
C459        C555   1.440       .  S
N460        C461   1.356       .  A
C461        N462   1.371       .  A
C461        C478   1.467       .  S
O463        C479   1.271       .  A
O463       Zn469   2.008       .  S
C464        C535   1.440       .  S
C464        O480   1.269       .  A
C464        O477   1.262       .  A
O465        C478   1.279       .  A
O465       Cd472   2.117       .  S
O466        C484   1.265       .  A
O466       Cd475   2.041       .  S
O467        C481   1.280       .  A
O467       Cd471   2.111       .  S
O468        C479   1.279       .  A
O468       Cd471   2.099       .  S
Zn469       O482   1.974       .  S
Zn469       O474   1.929       .  S
O470        C481   1.266       .  A
O470       Cd475   2.008       .  S
Cd471       O473   2.124       .  S
Cd471       O474   2.014       .  S
Cd472       O476   2.099       .  S
Cd472       O485   2.095       .  S
Cd472       O474   2.000       .  S
O473        C483   1.284       .  A
O474       Cd475   1.992       .  S
O476        C483   1.282       .  A
C478        O482   1.272       .  A
C483        C604   1.489       .  S
C484        C495   1.461       .  S
C484        O485   1.280       .  A
C486        C487   1.420       .  A
C487        C488   1.413       .  A
C487        H492   1.083       .  S
C488        C598   1.489       .  S
C488        C489   1.400       .  A
C489        C490   1.404   1_556  A
C489        H493   1.085       .  S
C491        H494   1.084       .  S
C495        N496   1.374       .  A
C495        N500   1.348       .  A
N496        C497   1.371       .  A
C497        N498   1.356       .  A
C497        C516   1.467       .  S
N498        C499   1.343       .  A
C499        N500   1.342       .  A
C499        C593   1.440       .  S
O501        C517   1.271       .  A
O501      Zn1115   2.008   1_545  S
C502        C575   1.440       .  S
C502        O518   1.269       .  A
C502        O515   1.262       .  A
O503       C1124   1.279       .  A
O503       Cd510   2.117       .  S
O504        C522   1.265       .  A
O504       Cd513   2.041       .  S
O505        C519   1.280       .  A
O505       Cd509   2.111       .  S
O506       C1125   1.279       .  A
O506       Cd509   2.099       .  S
Zn507      O1109   2.008       .  S
Zn507       O518   2.009       .  S
Zn507      O1128   1.974       .  S
Zn507       O512   1.929       .  S
O508        C519   1.266       .  A
O508       Cd513   2.008       .  S
Cd509       O511   2.124       .  S
Cd509       O512   2.014       .  S
Cd510       O514   2.099       .  S
Cd510       O523   2.095       .  S
Cd510       O512   2.000       .  S
O511        C521   1.284       .  A
O512       Cd513   1.992       .  S
Cd513       O515   1.999       .  S
O514        C521   1.282       .  A
C516       O1111   1.279   1_545  A
C516        O520   1.272       .  A
C517       O1114   1.279   1_545  A
C519        C526   1.467       .  S
O520      Zn1115   1.974   1_545  S
C521        C566   1.489       .  S
C522        O523   1.280       .  A
C524        C525   1.401       .  A
C524        C529   1.420       .  A
C525        C526   1.393       .  A
C525        H530   1.084       .  S
C526        C527   1.404       .  A
C527        C528   1.400       .  A
C527        H531   1.085       .  S
C528        C560   1.489       .  S
C528        C529   1.413       .  A
C529        H532   1.083       .  S
C533        N534   1.348       .  A
C533        N538   1.373       .  A
C533        C597   1.461       .  S
N534        C535   1.342       .  A
C535        N536   1.343       .  A
N536        C537   1.356       .  A
C537        N538   1.371       .  A
C537        C554   1.466       .  S
O539       Zn545   2.009       .  S
C540        O556   1.272       .  A
C540        O553   1.279       .  A
O541        C554   1.279       .  A
O541       Cd548   2.117       .  S
O542        C560   1.284       .  A
O542       Cd551   2.124       .  S
O543        C557   1.266       .  A
O543       Cd547   2.007       .  S
O544       Cd547   1.999       .  S
Zn545       O556   2.008       .  S
Zn545       O558   1.974       .  S
Zn545       O550   1.930       .  S
O546        C557   1.280       .  A
O546       Cd551   2.112       .  S
Cd547       O549   2.041       .  S
Cd547       O550   1.992       .  S
Cd548       O552   2.095       .  S
Cd548       O561   2.098       .  S
Cd548       O550   2.000       .  S
O549        C559   1.265       .  A
O550       Cd551   2.014       .  S
Cd551       O553   2.099       .  S
O552        C559   1.280       .  A
C554        O558   1.272       .  A
C557        C564   1.467       .  S
C559        C571   1.461       .  S
C560        O561   1.282       .  A
C562        C563   1.401       .  A
C563        C564   1.393       .  A
C563        H568   1.084       .  S
C565        C566   1.400       .  A
C565        H569   1.085       .  S
C566        C567   1.413       .  A
C567        H570   1.083       .  S
C571        N572   1.373       .  A
C571        N576   1.348       .  A
N572        C573   1.371       .  A
C573        N574   1.356       .  A
C573        C592   1.466       .  S
N574        C575   1.343       .  A
C575        N576   1.342       .  A
O577        C593   1.269       .  A
O577       Zn583   2.009       .  S
C578        O594   1.272       .  A
C578       O1199   1.279       .  A
O579        C592   1.279       .  A
O579      Cd1194   2.117       .  S
O580        C598   1.284       .  A
O580       Cd589   2.124       .  S
O581        C595   1.266       .  A
O581       Cd585   2.007       .  S
O582        C593   1.262       .  A
O582       Cd585   1.999       .  S
Zn583      O1202   2.008   1_545  S
Zn583      O1204   1.974   1_545  S
Zn583       O588   1.930       .  S
O584        C595   1.280       .  A
O584       Cd589   2.112       .  S
Cd585       O587   2.041       .  S
Cd585       O588   1.992       .  S
Cd586      O1187   2.117   1_545  S
Cd586       O590   2.095       .  S
Cd586       O599   2.098       .  S
Cd586       O588   2.000       .  S
O587        C597   1.265       .  A
O588       Cd589   2.014       .  S
Cd589       O591   2.099       .  S
O590        C597   1.280       .  A
O591       C1186   1.279   1_545  A
C592        O596   1.272       .  A
O594      Zn1191   2.008       .  S
C595        C602   1.467       .  S
O596      Zn1191   1.974       .  S
C598        O599   1.282       .  A
C600        C601   1.401       .  A
C600        C605   1.420       .  A
C601        C602   1.393       .  A
C601        H606   1.084       .  S
C602        C603   1.404       .  A
C603        C604   1.400       .  A
C603        H607   1.085       .  S
C604        C605   1.413       .  A
C605        H608   1.083       .  S
C609        N610   1.374       .  A
C609        N614   1.348       .  A
C609        C673   1.461       .  S
N610        C611   1.371   1_455  A
C611        N612   1.356   1_655  A
C611        C630   1.467       .  S
N612        C613   1.343       .  A
C613        N614   1.342       .  A
C613        C730   1.440       .  S
O615        C631   1.269       .  A
O615       Zn925   2.009       .  S
C616       C1094   1.471   1_554  S
C616        O632   1.271       .  A
O617       Cd624   2.117       .  S
O618        C636   1.284       .  A
O618       Cd627   2.124       .  S
O619        C633   1.266       .  A
O619       Cd623   2.008       .  S
O620        C631   1.262       .  A
O620       Cd927   1.999       .  S
Zn621       O919   2.009   1_554  S
Zn621       O626   1.929       .  S
O622        C633   1.280       .  A
O622       Cd627   2.111       .  S
Cd623       O924   1.999   1_554  S
Cd623       O625   2.041       .  S
Cd623       O626   1.992       .  S
Cd624       O628   2.095       .  S
Cd624       O637   2.099       .  S
Cd624       O626   2.000       .  S
O625        C635   1.265       .  A
O626       Cd627   2.014       .  S
Cd627       O629   2.099       .  S
O628        C635   1.280       .  A
C630        O634   1.272       .  A
C631        C725   1.440       .  S
C633        C946   1.467       .  S
C635        C647   1.461       .  S
C636        C716   1.489       .  S
C636        O637   1.282       .  A
C638       C1087   1.471       .  S
C638        C639   1.420       .  A
C638        C947   1.401       .  A
C639        C640   1.413       .  A
C639        H644   1.083       .  S
C640        C711   1.489       .  S
C640        C641   1.400       .  A
C641        C642   1.404       .  A
C641        H645   1.085       .  S
C642        C937   1.467       .  S
C642        C947   1.393       .  A
C643        C942   1.401   1_554  A
C643        C946   1.393       .  A
C643        H646   1.084       .  S
C647        N648   1.374   1_655  A
C647        N652   1.348       .  A
N648        C649   1.371       .  A
C649        N650   1.356   1_455  A
C649        C668   1.467       .  S
N650        C651   1.343       .  A
C651        N652   1.342       .  A
C651        C692   1.440       .  S
O653        C669   1.269       .  A
O653       Zn659   2.009       .  S
C654        C828   1.471       .  S
C654        O670   1.271       .  A
C654        O667   1.279       .  A
O655        C668   1.279       .  A
O655       Cd662   2.117       .  S
O656        C674   1.284       .  A
O656       Cd665   2.124       .  S
O657        C671   1.266       .  A
O657       Cd661   2.008       .  S
O658        C669   1.262       .  A
O658       Cd661   1.999       .  S
Zn659       O670   2.008       .  S
Zn659       O672   1.974       .  S
Zn659       O664   1.929       .  S
O660        C671   1.280       .  A
O660       Cd665   2.111       .  S
Cd661       O663   2.041       .  S
Cd661       O664   1.992       .  S
Cd662       O666   2.095       .  S
Cd662       O675   2.099       .  S
Cd662       O664   2.000       .  S
O663        C673   1.265       .  A
O664       Cd665   2.014       .  S
Cd665       O667   2.099       .  S
O666        C673   1.280       .  A
C668        O672   1.272       .  A
C669        C687   1.440       .  S
C671        C678   1.467       .  S
C674        C754   1.489       .  S
C674        O675   1.282       .  A
C676        C821   1.471       .  S
C676        C677   1.401       .  A
C676        C681   1.420       .  A
C677        C678   1.393       .  A
C677        H682   1.085       .  S
C678        C679   1.404       .  A
C679        C680   1.400       .  A
C679        H683   1.085       .  S
C680        C749   1.489       .  S
C680        C681   1.413       .  A
C681        H684   1.083       .  S
C685        N686   1.356   1_655  A
C685        N690   1.371   1_655  A
C685        C706   1.466       .  S
N686        C687   1.343       .  A
C687        N688   1.342       .  A
N688        C689   1.348       .  A
C689        N690   1.373       .  A
C689        C750   1.461       .  S
O691        C707   1.272       .  A
O691       Zn697   2.008       .  S
C692        O708   1.269       .  A
C692        O705   1.262       .  A
O693        C706   1.279       .  A
O693       Cd700   2.117       .  S
O694        C712   1.265       .  A
O694       Cd703   2.041       .  S
O695        C709   1.280       .  A
O695       Cd699   2.112       .  S
O696        C707   1.279       .  A
O696       Cd699   2.099       .  S
Zn697       O708   2.009       .  S
Zn697       O710   1.974       .  S
Zn697       O702   1.930       .  S
O698        C709   1.266       .  A
O698       Cd703   2.007       .  S
Cd699       O701   2.124       .  S
Cd699       O702   2.014       .  S
Cd700       O704   2.098       .  S
Cd700       O713   2.095       .  S
Cd700       O702   2.000       .  S
O701        C711   1.284       .  A
O702       Cd703   1.992       .  S
Cd703       O705   1.999       .  S
O704        C711   1.282       .  A
C706        O710   1.272       .  A
C707        C904   1.471       .  S
C709        C718   1.467       .  S
C712        C727   1.461       .  S
C712        O713   1.280       .  A
C714        C882   1.471       .  S
C714        C715   1.420       .  A
C714        C719   1.401       .  A
C715        C716   1.413       .  A
C715        H720   1.083       .  S
C716        C717   1.400       .  A
C717        C718   1.404       .  A
C717        H721   1.085       .  S
C718        C719   1.393       .  A
C719        H722   1.084       .  S
C723        N724   1.356   1_455  A
C723        N728   1.371       .  A
C723        C744   1.466       .  S
N724        C725   1.343       .  A
C725        N726   1.342       .  A
N726        C727   1.348       .  A
C727        N728   1.373   1_655  A
O729        C745   1.272       .  A
C730       O1050   1.269   1_554  A
C730       O1047   1.262   1_554  A
O731        C744   1.279       .  A
O732        C750   1.265       .  A
O732       Cd741   2.041       .  S
O733        C747   1.280       .  A
O733       Cd737   2.112       .  S
O734       Cd737   2.099       .  S
Zn735       O746   2.009       .  S
Zn735       O740   1.930       .  S
O736        C747   1.266       .  A
O736       Cd741   2.007       .  S
Cd737       O739   2.124       .  S
Cd737       O740   2.014       .  S
Cd738       O742   2.098       .  S
Cd738       O751   2.095       .  S
Cd738       O740   2.000       .  S
O739        C749   1.284       .  A
O740       Cd741   1.992       .  S
Cd741       O743   1.999       .  S
O742        C749   1.282       .  A
O743       C1034   1.262       .  A
C744        O748   1.272       .  A
C745        C866   1.471       .  S
O746       C1034   1.269       .  A
C747        C756   1.467       .  S
C750        O751   1.280       .  A
C752        C844   1.471       .  S
C752       C1057   1.420       .  A
C752        C757   1.401       .  A
C753       C1056   1.420   1_554  A
C753        C754   1.413       .  A
C753        H758   1.083       .  S
C754        C755   1.400       .  A
C755       C1060   1.404   1_554  A
C755        H759   1.085       .  S
C756       C1059   1.404       .  A
C756        C757   1.393       .  A
C757        H760   1.084       .  S
C761        N762   1.348       .  A
C761        N766   1.374       .  A
C761        C826   1.461       .  S
N762        C763   1.342       .  A
C763        N764   1.343       .  A
C763        C859   1.440       .  S
N764        C765   1.356       .  A
C765        N766   1.371       .  A
C765        C782   1.467       .  S
O767        C783   1.271       .  A
O767       Zn773   2.008       .  S
C768        C839   1.440       .  S
C768        O784   1.269       .  A
C768        O781   1.262       .  A
O769        C782   1.279       .  A
O769       Cd776   2.117       .  S
O770        C788   1.265       .  A
O770       Cd779   2.041       .  S
O771        C785   1.280       .  A
O771       Cd775   2.111       .  S
O772        C783   1.279       .  A
O772       Cd775   2.099       .  S
Zn773      O1088   2.009   1_554  S
Zn773       O786   1.974       .  S
Zn773       O778   1.929       .  S
O774        C785   1.266       .  A
O774       Cd779   2.008       .  S
Cd775       O777   2.124       .  S
Cd775       O778   2.014       .  S
Cd776       O780   2.099       .  S
Cd776       O789   2.095       .  S
Cd776       O778   2.000       .  S
O777        C787   1.284       .  A
O778       Cd779   1.992       .  S
Cd779      O1085   1.999   1_554  S
O780        C787   1.282       .  A
O781      Cd1083   1.999       .  S
C782        O786   1.272       .  A
C783        C942   1.471   1_554  S
O784      Zn1077   2.009       .  S
C785       C1098   1.467       .  S
C787        C908   1.489       .  S
C788        C799   1.461       .  S
C788        O789   1.280       .  A
C790        C920   1.471       .  S
C790        C791   1.420       .  A
C790       C1099   1.401       .  A
C791        C792   1.413       .  A
C791        H796   1.083       .  S
C792        C902   1.489       .  S
C792        C793   1.400       .  A
C793        C794   1.404       .  A
C793        H797   1.085       .  S
C794       C1089   1.467       .  S
C794       C1099   1.393       .  A
C795       C1094   1.401   1_554  A
C795       C1098   1.393       .  A
C795        H798   1.084       .  S
C799        N800   1.374       .  A
C799        N804   1.348       .  A
N800        C801   1.371       .  A
C801        N802   1.356       .  A
C801        C820   1.467       .  S
N802        C803   1.343       .  A
C803        N804   1.342       .  A
C803        C897   1.440       .  S
O805        C821   1.271       .  A
C806        C879   1.440       .  S
C806        O822   1.269       .  A
C806        O819   1.262       .  A
O807       Cd814   2.117       .  S
O808        C826   1.265       .  A
O808       Cd817   2.041       .  S
O809        C823   1.280       .  A
O809       Cd813   2.111       .  S
O810       Cd813   2.099       .  S
Zn811       O822   2.009       .  S
Zn811       O816   1.929       .  S
O812        C823   1.266       .  A
O812       Cd817   2.008       .  S
Cd813       O815   2.124       .  S
Cd813       O816   2.014       .  S
Cd814       O818   2.099       .  S
Cd814       O827   2.095       .  S
Cd814       O816   2.000       .  S
O815        C825   1.284       .  A
O816       Cd817   1.992       .  S
Cd817       O819   1.999       .  S
O818        C825   1.282       .  A
C820        O824   1.272       .  A
C823        C830   1.467       .  S
C825        C870   1.489       .  S
C826        O827   1.280       .  A
C828        C829   1.401       .  A
C828        C833   1.420       .  A
C829        C830   1.393       .  A
C829        H834   1.084       .  S
C830        C831   1.404       .  A
C831        C832   1.400       .  A
C831        H835   1.085       .  S
C832        C864   1.489       .  S
C832        C833   1.413       .  A
C833        H836   1.083       .  S
C837        N838   1.348       .  A
C837        N842   1.373       .  A
C837        C901   1.461       .  S
N838        C839   1.342       .  A
C839        N840   1.343       .  A
N840        C841   1.356       .  A
C841        N842   1.371       .  A
C841        C858   1.466       .  S
O843       C1163   1.269       .  A
O843       Zn849   2.009       .  S
C844        O860   1.272       .  A
C844        O857   1.279       .  A
O845        C858   1.279       .  A
O845       Cd852   2.117       .  S
O846        C864   1.284       .  A
O846       Cd855   2.124       .  S
O847        C861   1.266       .  A
O847       Cd851   2.007       .  S
O848       C1163   1.262       .  A
O848       Cd851   1.999       .  S
Zn849       O860   2.008       .  S
Zn849       O862   1.974       .  S
Zn849       O854   1.930       .  S
O850        C861   1.280       .  A
O850       Cd855   2.112       .  S
Cd851       O853   2.041       .  S
Cd851       O854   1.992       .  S
Cd852       O856   2.095       .  S
Cd852       O865   2.098       .  S
Cd852       O854   2.000       .  S
O853        C863   1.265       .  A
O854       Cd855   2.014       .  S
Cd855       O857   2.099       .  S
O856        C863   1.280       .  A
C858        O862   1.272       .  A
C859       O1147   1.269   1_554  A
C859       O1152   1.262   1_554  A
C861        C868   1.467       .  S
C863        C875   1.461       .  S
C864        O865   1.282       .  A
C866        C867   1.401       .  A
C866       C1175   1.420       .  A
C867        C868   1.393       .  A
C867        H872   1.084       .  S
C868       C1173   1.404       .  A
C869       C1172   1.404   1_554  A
C869        C870   1.400       .  A
C869        H873   1.085       .  S
C870        C871   1.413       .  A
C871       C1170   1.420   1_554  A
C871        H874   1.083       .  S
C875        N876   1.373       .  A
C875        N880   1.348       .  A
N876        C877   1.371       .  A
C877        N878   1.356       .  A
C877        C896   1.466       .  S
N878        C879   1.343       .  A
C879        N880   1.342       .  A
O881        C897   1.269       .  A
O881       Zn887   2.009       .  S
C882        O898   1.272       .  A
O883        C896   1.279       .  A
O884        C902   1.284       .  A
O884       Cd893   2.124       .  S
O885        C899   1.266       .  A
O885       Cd889   2.007       .  S
O886        C897   1.262       .  A
O886       Cd889   1.999       .  S
Zn887       O892   1.930       .  S
O888        C899   1.280       .  A
O888       Cd893   2.112       .  S
Cd889       O891   2.041       .  S
Cd889       O892   1.992       .  S
Cd890       O894   2.095       .  S
Cd890       O903   2.098       .  S
Cd890       O892   2.000       .  S
O891        C901   1.265       .  A
O892       Cd893   2.014       .  S
Cd893       O895   2.099       .  S
O894        C901   1.280       .  A
C896        O900   1.272       .  A
C899        C906   1.467       .  S
C902        O903   1.282       .  A
C904        C905   1.401       .  A
C904        C909   1.420       .  A
C905        C906   1.393       .  A
C905        H910   1.084       .  S
C906        C907   1.404       .  A
C907        C908   1.400       .  A
C907        H911   1.085       .  S
C908        C909   1.413       .  A
C909        H912   1.083       .  S
C913        N914   1.374       .  A
C913        N918   1.348       .  A
C913        C977   1.461       .  S
N914        C915   1.371   1_455  A
C915        N916   1.356   1_655  A
C915        C934   1.467       .  S
N916        C917   1.343       .  A
C917        N918   1.342       .  A
C917       C1034   1.440       .  S
O919        C935   1.269       .  A
C920        O936   1.271       .  A
O921       Cd928   2.117       .  S
O922        C940   1.284       .  A
O922       Cd931   2.124       .  S
O923        C937   1.266       .  A
O923       Cd927   2.008       .  S
O924        C935   1.262       .  A
Zn925       O930   1.929       .  S
O926        C937   1.280       .  A
O926       Cd931   2.111       .  S
Cd927       O929   2.041       .  S
Cd927       O930   1.992       .  S
Cd928       O932   2.095       .  S
Cd928       O941   2.099       .  S
Cd928       O930   2.000       .  S
O929        C939   1.265       .  A
O930       Cd931   2.014       .  S
Cd931       O933   2.099       .  S
O932        C939   1.280       .  A
C934        O938   1.272       .  A
C935       C1029   1.440       .  S
C939        C951   1.461       .  S
C940       C1020   1.489       .  S
C940        O941   1.282       .  A
C942        C943   1.420       .  A
C943        C944   1.413       .  A
C943        H948   1.083       .  S
C944       C1015   1.489       .  S
C944        C945   1.400       .  A
C945        C946   1.404   1_556  A
C945        H949   1.085       .  S
C947        H950   1.084       .  S
C951        N952   1.374   1_655  A
C951        N956   1.348       .  A
N952        C953   1.371       .  A
C953        N954   1.356   1_455  A
C953        C972   1.467       .  S
N954        C955   1.343       .  A
C955        N956   1.342       .  A
C955        C996   1.440       .  S
O957        C973   1.269       .  A
O957       Zn963   2.009       .  S
C958       C1132   1.471       .  S
C958        O974   1.271       .  A
C958        O971   1.279       .  A
O959        C972   1.279       .  A
O959       Cd966   2.117       .  S
O960        C978   1.284       .  A
O960       Cd969   2.124       .  S
O961        C975   1.266       .  A
O961       Cd965   2.008       .  S
O962        C973   1.262       .  A
O962       Cd965   1.999       .  S
Zn963       O974   2.008       .  S
Zn963       O976   1.974       .  S
Zn963       O968   1.929       .  S
O964        C975   1.280       .  A
O964       Cd969   2.111       .  S
Cd965       O967   2.041       .  S
Cd965       O968   1.992       .  S
Cd966       O970   2.095       .  S
Cd966       O979   2.099       .  S
Cd966       O968   2.000       .  S
O967        C977   1.265       .  A
O968       Cd969   2.014       .  S
Cd969       O971   2.099       .  S
O970        C977   1.280       .  A
C972        O976   1.272       .  A
C973        C991   1.440       .  S
C975        C982   1.467       .  S
C978       C1058   1.489       .  S
C978        O979   1.282       .  A
C980       C1125   1.471       .  S
C980        C981   1.401       .  A
C980        C985   1.420       .  A
C981        C982   1.393       .  A
C981        H986   1.084       .  S
C982        C983   1.404       .  A
C983        C984   1.400       .  A
C983        H987   1.085       .  S
C984       C1053   1.489       .  S
C984        C985   1.413       .  A
C985        H988   1.083       .  S
C989        N990   1.356   1_655  A
C989        N994   1.371   1_655  A
C989       C1010   1.466       .  S
N990        C991   1.343       .  A
C991        N992   1.342       .  A
N992        C993   1.348       .  A
C993        N994   1.373       .  A
C993       C1054   1.461       .  S
O995       C1011   1.272       .  A
O995      Zn1001   2.008       .  S
C996       O1012   1.269       .  A
C996       O1009   1.262       .  A
O997       C1010   1.279       .  A
O997      Cd1004   2.117       .  S
O998       C1016   1.265       .  A
O998      Cd1007   2.041       .  S
O999       C1013   1.280       .  A
O999      Cd1003   2.112       .  S
O1000      C1011   1.279       .  A
O1000     Cd1003   2.099       .  S
Zn1001     O1012   2.009       .  S
Zn1001     O1014   1.974       .  S
Zn1001     O1006   1.930       .  S
O1002      C1013   1.266       .  A
O1002     Cd1007   2.007       .  S
Cd1003     O1005   2.124       .  S
Cd1003     O1006   2.014       .  S
Cd1004     O1008   2.098       .  S
Cd1004     O1017   2.095       .  S
Cd1004     O1006   2.000       .  S
O1005      C1015   1.284       .  A
O1006     Cd1007   1.992       .  S
Cd1007     O1009   1.999       .  S
O1008      C1015   1.282       .  A
C1010      O1014   1.272       .  A
C1011      C1208   1.471       .  S
C1013      C1022   1.467       .  S
C1016      C1031   1.461       .  S
C1016      O1017   1.280       .  A
C1018      C1186   1.471       .  S
C1018      C1019   1.420       .  A
C1018      C1023   1.401       .  A
C1019      C1020   1.413       .  A
C1019      H1024   1.083       .  S
C1020      C1021   1.400       .  A
C1021      C1022   1.404       .  A
C1021      H1025   1.085       .  S
C1022      C1023   1.393       .  A
C1023      H1026   1.084       .  S
C1027      N1028   1.356   1_455  A
C1027      N1032   1.371       .  A
C1027      C1048   1.466       .  S
N1028      C1029   1.343       .  A
C1029      N1030   1.342       .  A
N1030      C1031   1.348       .  A
C1031      N1032   1.373   1_655  A
O1033      C1049   1.272       .  A
O1035      C1048   1.279       .  A
O1036      C1054   1.265       .  A
O1036     Cd1045   2.041       .  S
O1037      C1051   1.280       .  A
O1037     Cd1041   2.112       .  S
O1038     Cd1041   2.099       .  S
Zn1039     O1050   2.009       .  S
Zn1039     O1044   1.930       .  S
O1040      C1051   1.266       .  A
O1040     Cd1045   2.007       .  S
Cd1041     O1043   2.124       .  S
Cd1041     O1044   2.014       .  S
Cd1042     O1046   2.098       .  S
Cd1042     O1055   2.095       .  S
Cd1042     O1044   2.000       .  S
O1043      C1053   1.284       .  A
O1044     Cd1045   1.992       .  S
Cd1045     O1047   1.999       .  S
O1046      C1053   1.282       .  A
C1048      O1052   1.272       .  A
C1049      C1170   1.471       .  S
C1051      C1060   1.467       .  S
C1054      O1055   1.280       .  A
C1056      C1148   1.471       .  S
C1056      C1061   1.401       .  A
C1057      C1058   1.413       .  A
C1057      H1062   1.083       .  S
C1058      C1059   1.400       .  A
C1059      H1063   1.085       .  S
C1060      C1061   1.393       .  A
C1061      H1064   1.084       .  S
C1065      N1066   1.348       .  A
C1065      N1070   1.374       .  A
C1065      C1130   1.461       .  S
N1066      C1067   1.342       .  A
C1067      N1068   1.343       .  A
C1067      C1163   1.440       .  S
N1068      C1069   1.356       .  A
C1069      N1070   1.371       .  A
C1069      C1086   1.467       .  S
O1071      C1087   1.271       .  A
O1071     Zn1077   2.008       .  S
C1072      C1143   1.440       .  S
C1072      O1088   1.269       .  A
C1072      O1085   1.262       .  A
O1073      C1086   1.279       .  A
O1073     Cd1080   2.117       .  S
O1074      C1092   1.265       .  A
O1074     Cd1083   2.041       .  S
O1075      C1089   1.280       .  A
O1075     Cd1079   2.111       .  S
O1076      C1087   1.279       .  A
O1076     Cd1079   2.099       .  S
Zn1077     O1090   1.974       .  S
Zn1077     O1082   1.929       .  S
O1078      C1089   1.266       .  A
O1078     Cd1083   2.008       .  S
Cd1079     O1081   2.124       .  S
Cd1079     O1082   2.014       .  S
Cd1080     O1084   2.099       .  S
Cd1080     O1093   2.095       .  S
Cd1080     O1082   2.000       .  S
O1081      C1091   1.284       .  A
O1082     Cd1083   1.992       .  S
O1084      C1091   1.282       .  A
C1086      O1090   1.272       .  A
C1091      C1212   1.489       .  S
C1092      C1103   1.461       .  S
C1092      O1093   1.280       .  A
C1094      C1095   1.420       .  A
C1095      C1096   1.413       .  A
C1095      H1100   1.083       .  S
C1096      C1206   1.489       .  S
C1096      C1097   1.400       .  A
C1097      C1098   1.404   1_556  A
C1097      H1101   1.085       .  S
C1099      H1102   1.084       .  S
C1103      N1104   1.374       .  A
C1103      N1108   1.348       .  A
N1104      C1105   1.371       .  A
C1105      N1106   1.356       .  A
C1105      C1124   1.467       .  S
N1106      C1107   1.343       .  A
C1107      N1108   1.342       .  A
C1107      C1201   1.440       .  S
O1109      C1125   1.271       .  A
C1110      C1183   1.440       .  S
C1110      O1126   1.269       .  A
C1110      O1123   1.262       .  A
O1111     Cd1118   2.117       .  S
O1112      C1130   1.265       .  A
O1112     Cd1121   2.041       .  S
O1113      C1127   1.280       .  A
O1113     Cd1117   2.111       .  S
O1114     Cd1117   2.099       .  S
Zn1115     O1126   2.009       .  S
Zn1115     O1120   1.929       .  S
O1116      C1127   1.266       .  A
O1116     Cd1121   2.008       .  S
Cd1117     O1119   2.124       .  S
Cd1117     O1120   2.014       .  S
Cd1118     O1122   2.099       .  S
Cd1118     O1131   2.095       .  S
Cd1118     O1120   2.000       .  S
O1119      C1129   1.284       .  A
O1120     Cd1121   1.992       .  S
Cd1121     O1123   1.999       .  S
O1122      C1129   1.282       .  A
C1124      O1128   1.272       .  A
C1127      C1134   1.467       .  S
C1129      C1174   1.489       .  S
C1130      O1131   1.280       .  A
C1132      C1133   1.401       .  A
C1132      C1137   1.420       .  A
C1133      C1134   1.393       .  A
C1133      H1138   1.084       .  S
C1134      C1135   1.404       .  A
C1135      C1136   1.400       .  A
C1135      H1139   1.085       .  S
C1136      C1168   1.489       .  S
C1136      C1137   1.413       .  A
C1137      H1140   1.083       .  S
C1141      N1142   1.348       .  A
C1141      N1146   1.373       .  A
C1141      C1205   1.461       .  S
N1142      C1143   1.342       .  A
C1143      N1144   1.343       .  A
N1144      C1145   1.356       .  A
C1145      N1146   1.371       .  A
C1145      C1162   1.466       .  S
O1147     Zn1153   2.009       .  S
C1148      O1164   1.272       .  A
C1148      O1161   1.279       .  A
O1149      C1162   1.279       .  A
O1149     Cd1156   2.117       .  S
O1150      C1168   1.284       .  A
O1150     Cd1159   2.124       .  S
O1151      C1165   1.266       .  A
O1151     Cd1155   2.007       .  S
O1152     Cd1155   1.999       .  S
Zn1153     O1164   2.008       .  S
Zn1153     O1166   1.974       .  S
Zn1153     O1158   1.930       .  S
O1154      C1165   1.280       .  A
O1154     Cd1159   2.112       .  S
Cd1155     O1157   2.041       .  S
Cd1155     O1158   1.992       .  S
Cd1156     O1160   2.095       .  S
Cd1156     O1169   2.098       .  S
Cd1156     O1158   2.000       .  S
O1157      C1167   1.265       .  A
O1158     Cd1159   2.014       .  S
Cd1159     O1161   2.099       .  S
O1160      C1167   1.280       .  A
C1162      O1166   1.272       .  A
C1165      C1172   1.467       .  S
C1167      C1179   1.461       .  S
C1168      O1169   1.282       .  A
C1170      C1171   1.401       .  A
C1171      C1172   1.393       .  A
C1171      H1176   1.084       .  S
C1173      C1174   1.400       .  A
C1173      H1177   1.085       .  S
C1174      C1175   1.413       .  A
C1175      H1178   1.083       .  S
C1179      N1180   1.373       .  A
C1179      N1184   1.348       .  A
N1180      C1181   1.371       .  A
C1181      N1182   1.356       .  A
C1181      C1200   1.466       .  S
N1182      C1183   1.343       .  A
C1183      N1184   1.342       .  A
O1185      C1201   1.269       .  A
O1185     Zn1191   2.009       .  S
C1186      O1202   1.272       .  A
O1187      C1200   1.279       .  A
O1188      C1206   1.284       .  A
O1188     Cd1197   2.124       .  S
O1189      C1203   1.266       .  A
O1189     Cd1193   2.007       .  S
O1190      C1201   1.262       .  A
O1190     Cd1193   1.999       .  S
Zn1191     O1196   1.930       .  S
O1192      C1203   1.280       .  A
O1192     Cd1197   2.112       .  S
Cd1193     O1195   2.041       .  S
Cd1193     O1196   1.992       .  S
Cd1194     O1198   2.095       .  S
Cd1194     O1207   2.098       .  S
Cd1194     O1196   2.000       .  S
O1195      C1205   1.265       .  A
O1196     Cd1197   2.014       .  S
Cd1197     O1199   2.099       .  S
O1198      C1205   1.280       .  A
C1200      O1204   1.272       .  A
C1203      C1210   1.467       .  S
C1206      O1207   1.282       .  A
C1208      C1209   1.401       .  A
C1208      C1213   1.420       .  A
C1209      C1210   1.393       .  A
C1209      H1214   1.084       .  S
C1210      C1211   1.404       .  A
C1211      C1212   1.400       .  A
C1211      H1215   1.085       .  S
C1212      C1213   1.413       .  A
C1213      H1216   1.083       .  S
