geometry optimzed in LAMMPS
_audit_creation_date              2020-11-30 
_audit_creation_method            'lammps2cif' 
_symmetry_space_group_name_H-M    'P1' 
_symmetry_Int_Tables_number       1 
_symmetry_cell_setting            triclinic 
loop_ 
_symmetry_equiv_pos_as_xyz 
  x,y,z 
_cell_length_a                    44.90222214 
_cell_length_b                    45.61510736970209 
_cell_length_c                    37.17494559526679 
_cell_angle_alpha                 88.51756047055387 
_cell_angle_beta                  89.81599628800403 
_cell_angle_gamma                 121.40297239749319 
loop_ 
_atom_site_label 
_atom_site_type_symbol 
_atom_site_fract_x 
_atom_site_fract_y 
_atom_site_fract_z 
_atom_site_charge 
O1          O  0.30140117  0.26676821  0.47046150    -0.71700
O2          O  0.22407439  0.19836796  0.02869375    -0.71900
O3          O  0.24109596  0.20890696  0.45812875    -0.71700
O4          O  0.28517814  0.25681690  0.04164063    -0.71700
O5          O  0.26331223  0.28904303  0.03441584    -0.71700
O6          O  0.21104096  0.23339305  0.45668071    -0.71700
O7          O  0.20042110  0.22942625  0.02746010    -0.71700
O8          O  0.27307643  0.29295613  0.46182615    -0.71800
V9          V  0.26290408  0.23331864  0.49988468     1.35200
V10         V  0.23720107  0.26077823  0.99501027     1.35200
C11         C  0.29942205  0.29070078  0.45484138     0.77600
C12         C  0.19950522  0.20250938  0.03862854     0.77600
C13         C  0.21754583  0.21192245  0.44342274     0.77500
C14         C  0.28356924  0.28229488  0.05158175     0.77500
O15         O  0.03537382  0.24347945  0.03546090    -0.71700
O16         O  0.02675017  0.29030591  0.45403483    -0.71900
O17         O  0.03593176  0.30244843  0.02418060    -0.71700
O18         O  0.02689285  0.23179628  0.46557353    -0.71700
O19         O  0.46758070  0.20116518  0.47067565    -0.71700
O20         O  0.47337712  0.27061549  0.03006775    -0.71700
O21         O  0.46784326  0.26015318  0.45915349    -0.71700
O22         O  0.47403345  0.21230725  0.04281646    -0.71800
V23         V  0.03048119  0.26627345  0.99426672     1.35200
V24         V  0.47233555  0.23659253  0.50044265     1.35200
C25         C  0.50352369  0.21846752  0.05362663     0.77600
C26         C  0.99756231  0.28501923  0.44399898     0.77600
C27         C  0.00905902  0.29995803  0.03870436     0.77500
C28         C  0.49436481  0.20361094  0.45639605     0.77500
O29         O  0.26022846  0.46793608  0.47239678    -0.71700
O30         O  0.21610658  0.48162287  0.05079143    -0.71900
O31         O  0.19906397  0.46512050  0.48296084    -0.71700
O32         O  0.27764468  0.48591968  0.04048754    -0.71700
O33         O  0.28817684  0.02032651  0.02886195    -0.71700
O34         O  0.21254748  0.00151233  0.46947935    -0.71700
O35         O  0.22810498  0.01724501  0.03879605    -0.71700
O36         O  0.27344248  0.00357545  0.45849831    -0.71800
V37         V  0.23900347  0.47655060  0.51151871     1.35200
V38         V  0.25019922  0.01076071  0.99866756     1.35200
C39         C  0.26908098  0.97441425  0.45231340     0.77600
C40         C  0.22212772  0.51097490  0.05812986     0.77600
C41         C  0.19696888  0.48877978  0.46675048     0.77500
C42         C  0.28779992  0.99630221  0.04704431     0.77500
C43         C  0.00693440  0.46041384  0.24027330    -0.02400
C44         C  0.49617985  0.04103986  0.25678753    -0.02400
C45         C  0.04122433  0.04175192  0.25570790    -0.02400
C46         C  0.04994544  0.50341574  0.25249282    -0.02400
C47         C  0.45191404  0.99810066  0.24830210    -0.02400
C48         C  0.46002706  0.45946932  0.23988765    -0.02400
C49         C  0.31457883  0.00413101  0.07550600     0.01500
C50         C  0.32436552  0.52559584  0.10421367     0.04300
C51         C  0.34563822  0.52418829  0.13091316    -0.11800
C52         C  0.36376491  0.02299762  0.13314080     0.23600
C53         C  0.37200260  0.04357478  0.10116218    -0.12300
C54         C  0.34830318  0.03396976  0.07244331     0.05000
C55         C  0.39206464  0.02356177  0.15702363     0.27400
C56         C  0.40599277  0.04346030  0.18722967    -0.13000
C57         C  0.41617932  0.03039852  0.21763985     0.05500
C58         C  0.42676748  0.00439198  0.21597850    -0.09000
C59         C  0.41062372  0.98505030  0.18348810     0.06300
C60         C  0.39909145  0.99756059  0.15340364    -0.13400
Br61       Br  0.41295411  0.08786635  0.09782987    -0.05400
Br62       Br  0.28517011  0.52955546  0.11770547     0.00200
Br63       Br  0.37264213  0.02080975  0.24111741     0.00600
Br64       Br  0.39444340  0.98310321  0.10386371    -0.03800
Br65       Br  0.36388113  0.06093546  0.02769814     0.00700
Br66       Br  0.32330490  0.50877901  0.17721372    -0.03100
Br67       Br  0.41269031  0.58562913  0.18136159    -0.03900
Br68       Br  0.36485946  0.94592320  0.18224130     0.00000
C69         C  0.42090609  0.99135772  0.28291871     0.01500
C70         C  0.41640521  0.01753055  0.30134536     0.04300
C71         C  0.39351895  0.01190720  0.33201210    -0.11800
C72         C  0.36951567  0.97934026  0.34536425     0.23600
C73         C  0.37721149  0.46132748  0.33266018    -0.12300
C74         C  0.39417070  0.46425413  0.29789933     0.05000
C75         C  0.34140242  0.97434057  0.37321429     0.27400
C76         C  0.34704523  0.97565000  0.41094627    -0.13000
C77         C  0.32080596  0.97028825  0.43598699     0.05500
C78         C  0.29139118  0.97101661  0.42466695    -0.09000
C79         C  0.29594160  0.48951762  0.38541228     0.06300
C80         C  0.31049049  0.97326346  0.36197487    -0.13400
Br81       Br  0.34098412  0.41818874  0.35536313    -0.05400
Br82       Br  0.43529403  0.06300169  0.28821673     0.00200
Br83       Br  0.32637863  0.96410619  0.48664132     0.00600
Br84       Br  0.31048612  0.49033861  0.30980419    -0.03800
Br85       Br  0.34902392  0.44851865  0.27717772     0.00700
Br86       Br  0.39363438  0.04846744  0.35867249    -0.03100
Br87       Br  0.39256913  0.99361153  0.42996923    -0.03900
Br88       Br  0.25724091  0.49345712  0.36956485     0.00000
C89         C  0.06953077  0.49256232  0.29010740     0.01500
C90         C  0.06181044  0.99402412  0.32888034     0.04300
C91         C  0.06144413  0.97361248  0.35963544    -0.11800
C92         C  0.09016332  0.46629161  0.35871224     0.23600
C93         C  0.10055087  0.46262909  0.32474914    -0.12300
C94         C  0.09264044  0.47619049  0.29192182     0.05000
C95         C  0.11427845  0.47086769  0.39073288     0.27400
C96         C  0.13590014  0.99228516  0.39980673    -0.13000
C97         C  0.15493436  0.99586691  0.43075703     0.05500
C98         C  0.16604107  0.48200915  0.44413139    -0.09000
C99         C  0.13756618  0.44839276  0.43774301     0.06300
C100        C  0.11184067  0.44303818  0.41187516    -0.13400
Br101      Br  0.13237292  0.44362010  0.32857773    -0.05400
Br102      Br  0.10322316  0.03047699  0.35149181     0.00200
Br103      Br  0.18394307  0.04192726  0.44778808     0.00600
Br104      Br  0.08097401  0.39671134  0.39857797    -0.03800
Br105      Br  0.13460026  0.48414337  0.26478009     0.00700
Br106      Br  0.04550069  0.97979375  0.40632279    -0.03100
Br107      Br  0.16737903  0.02027765  0.36097526    -0.03900
Br108      Br  0.13362927  0.40877644  0.46296402     0.00000
C109        C  0.08571047  0.51579667  0.22395165     0.01500
C110        C  0.08414582  0.50694720  0.18640788     0.04300
C111        C  0.10960159  0.50135303  0.16925943    -0.11800
C112        C  0.14457955  0.51945487  0.17945369     0.23600
C113        C  0.14680238  0.03301344  0.21067150    -0.12300
C114        C  0.11908288  0.03002346  0.23432199     0.05000
C115        C  0.17226914  0.52216142  0.15370326     0.27400
C116        C  0.17780454  0.49458062  0.15150350    -0.13000
C117        C  0.19430671  0.49105534  0.12091659     0.05500
C118        C  0.20606945  0.51559607  0.09154112    -0.09000
C119        C  0.19042663  0.02787684  0.09512570     0.06300
C120        C  0.17971927  0.03545504  0.12744534    -0.13400
Br121      Br  0.19635988  0.06093249  0.22115254    -0.05400
Br122      Br  0.10216436  0.54357494  0.15017176     0.00200
Br123      Br  0.19960915  0.45149925  0.12072315     0.00600
Br124      Br  0.18625879  0.08011886  0.13141103    -0.03800
Br125      Br  0.14122274  0.05022001  0.27963250     0.00700
Br126      Br  0.09934021  0.47245183  0.12829186    -0.03100
Br127      Br  0.16141949  0.46047885  0.19009212    -0.03900
Br128      Br  0.19752895  0.05704529  0.05309709     0.00000
C129        C  0.01504013  0.44570631  0.19909259     0.01500
C130        C  0.49810922  0.44178702  0.16218049     0.05800
C131        C  0.49078481  0.41519377  0.13644022    -0.11800
C132        C  0.01054456  0.39840029  0.13923281     0.23600
C133        C  0.03303245  0.40615509  0.16755007    -0.12300
C134        C  0.03639264  0.42988517  0.19468072     0.05000
C135        C  0.00759999  0.37295934  0.11124971     0.27400
C136        C  0.48515604  0.33389288  0.12036212    -0.13000
C137        C  0.48458435  0.31041480  0.09596949     0.05500
C138        C  0.01093308  0.32583256  0.06398857    -0.09000
C139        C  0.02823572  0.36114856  0.05463886     0.06300
C140        C  0.02565393  0.38432521  0.07729669    -0.13400
Br141      Br  0.06093655  0.38393695  0.16664035    -0.05400
Br142      Br  0.52722669  0.47420252  0.12377516     0.00200
Br143      Br  0.45937215  0.26201917  0.10911380     0.00600
Br144      Br  0.04730423  0.43136309  0.06018988    -0.03800
Br145      Br  0.07618275  0.44009118  0.21884862     0.00700
Br146      Br  0.46443050  0.40787618  0.09284035    -0.03100
Br147      Br  0.46404818  0.31565785  0.16713965    -0.03900
Br148      Br  0.05657686  0.37821586  0.01116236     0.00000
C149        C  0.00149164  0.42613450  0.27000255     0.01500
C150        C  0.47026284  0.40057150  0.29482161     0.04300
C151        C  0.47505952  0.38492002  0.32713361    -0.11800
C152        C  0.00710809  0.38298544  0.33077089     0.23600
C153        C  0.03084242  0.39695256  0.30135733    -0.12300
C154        C  0.02194780  0.40979283  0.27005903     0.05000
C155        C  0.00634970  0.35729830  0.35950284     0.27400
C156        C  0.00132909  0.36088485  0.39676982    -0.13000
C157        C  0.99196466  0.33403203  0.42238827     0.05500
C158        C  0.99625783  0.30672913  0.41416144    -0.09000
C159        C  0.49930407  0.30068081  0.37638504     0.06300
C160        C  0.49887733  0.32292146  0.34929874    -0.13400
Br161      Br  0.06442880  0.38275563  0.29546282    -0.05400
Br162      Br  0.42844160  0.36234465  0.27780431     0.00200
Br163      Br  0.97122468  0.33372668  0.46810753     0.00600
Br164      Br  0.48426669  0.30389210  0.30260425    -0.03800
Br165      Br  0.00297994  0.36777025  0.24324537     0.00700
Br166      Br  0.43637083  0.35376903  0.35963167    -0.03100
Br167      Br  0.00854400  0.40262393  0.41487145    -0.03900
Br168      Br  0.50557561  0.26353676  0.36358995     0.00000
C169        C  0.49129462  0.17653258  0.43207044     0.01500
C170        C  0.46668432  0.16392830  0.40424322     0.04300
C171        C  0.46641208  0.14102592  0.37902445    -0.11800
C172        C  0.48875021  0.12772767  0.38274156     0.23600
C173        C  0.01543121  0.14182913  0.41345167    -0.12300
C174        C  0.01634679  0.16556337  0.43791718     0.05000
C175        C  0.48861985  0.10351267  0.35474994     0.27400
C176        C  0.47985455  0.06958038  0.36292722    -0.13000
C177        C  0.47961926  0.04707765  0.33530660     0.05500
C178        C  0.49788132  0.06000178  0.29881301    -0.09000
C179        C  0.01928029  0.09903184  0.30314189     0.06300
C180        C  0.00797134  0.11842162  0.32311214    -0.13400
Br181      Br  0.05045335  0.12994159  0.41981101    -0.05400
Br182      Br  0.43351954  0.17867757  0.39963660     0.00200
Br183      Br  0.45279881  0.00109223  0.35680354     0.00600
Br184      Br  0.02778031  0.16794938  0.31331275    -0.03800
Br185      Br  0.04667367  0.17867431  0.47898267     0.00700
Br186      Br  0.43818644  0.13205113  0.33696905    -0.03100
Br187      Br  0.47190016  0.05624075  0.41378848    -0.03900
Br188      Br  0.05929961  0.12344844  0.33352639     0.00000
C189        C  0.49780382  0.07397543  0.22513468     0.01500
C190        C  0.01172188  0.11212068  0.23521104     0.04300
C191        C  0.02809068  0.14244690  0.21079479    -0.11800
C192        C  0.51459547  0.13750345  0.17382527     0.23600
C193        C  0.49885492  0.10424343  0.16184838    -0.12300
C194        C  0.49284472  0.07492054  0.18510831     0.05000
C195        C  0.51598298  0.16681361  0.15002640     0.27400
C196        C  0.48593415  0.16924620  0.14522881    -0.13000
C197        C  0.48037425  0.18263341  0.11280475     0.05500
C198        C  0.50795716  0.20134486  0.08723391    -0.09000
C199        C  0.04525701  0.20618828  0.09545899     0.06300
C200        C  0.04832216  0.18908455  0.12652805    -0.13400
Br201      Br  0.48931987  0.10249620  0.11010453    -0.05400
Br202      Br  0.97992967  0.12793662  0.24432493     0.00200
Br203      Br  0.43419072  0.17500154  0.10558908     0.00600
Br204      Br  0.09324171  0.19763117  0.13777438    -0.03800
Br205      Br  0.47677500  0.04078155  0.15248802     0.00700
Br206      Br  0.05784219  0.18934394  0.22694641    -0.03100
Br207      Br  0.45898732  0.16771149  0.18594287    -0.03900
Br208      Br  0.08627592  0.23218444  0.06439447     0.00000
C209        C  0.43670403  0.43128940  0.20470241     0.01500
C210        C  0.42124465  0.39408869  0.21042512     0.04300
C211        C  0.39022808  0.36742878  0.19376093    -0.11800
C212        C  0.37971976  0.37358056  0.16073987     0.23600
C213        C  0.40104401  0.40650896  0.14568140    -0.12300
C214        C  0.42815431  0.43465880  0.16642210     0.05000
C215        C  0.35165021  0.34478348  0.13826241     0.27400
C216        C  0.36091104  0.32670276  0.11483297    -0.13000
C217        C  0.33995018  0.30887034  0.08549021     0.05500
C218        C  0.30633275  0.30396532  0.08163722    -0.09000
C219        C  0.29530557  0.31936639  0.10686973     0.06300
C220        C  0.31817752  0.34040862  0.13414449    -0.13400
Br221      Br  0.39410259  0.40854355  0.09334132    -0.05400
Br222      Br  0.44396774  0.37143159  0.19613623     0.00200
Br223      Br  0.36023502  0.29557913  0.04788373     0.00600
Br224      Br  0.30339527  0.36314156  0.16594717    -0.03800
Br225      Br  0.45437312  0.47081059  0.13257133     0.00700
Br226      Br  0.36090240  0.32254221  0.21720501    -0.03100
Br227      Br  0.40272455  0.32620637  0.12180324    -0.03900
Br228      Br  0.24883008  0.31164737  0.10454732     0.00000
C229        C  0.32671305  0.31525719  0.42834687     0.01500
C230        C  0.33138299  0.30402128  0.39527150     0.04300
C231        C  0.35434069  0.32777752  0.36823216    -0.11800
C232        C  0.37291778  0.36455604  0.37308032     0.23600
C233        C  0.36876947  0.37452751  0.40827984    -0.12300
C234        C  0.34648584  0.35025248  0.43527310     0.05000
C235        C  0.39355544  0.39095824  0.34101905     0.27400
C236        C  0.42835343  0.42026686  0.34227302    -0.13000
C237        C  0.44624875  0.44160197  0.31068803     0.05500
C238        C  0.43379176  0.43501701  0.27498998    -0.09000
C239        C  0.39622611  0.40763848  0.27584197     0.06300
C240        C  0.37735795  0.38681232  0.30745194    -0.13400
Br241      Br  0.38993112  0.42071658  0.42216788    -0.05400
Br242      Br  0.30437294  0.25523133  0.38670750     0.00200
Br243      Br  0.49290007  0.47509815  0.31450708     0.00600
Br244      Br  0.32637942  0.35407268  0.30610098    -0.03800
Br245      Br  0.34277433  0.36440340  0.48314859     0.00700
Br246      Br  0.35846382  0.30683951  0.32527038    -0.03100
Br247      Br  0.45607950  0.43017139  0.38510872    -0.03900
Br248      Br  0.36355635  0.39833421  0.23892068     0.00000
C249        C  0.19826478  0.19059771  0.41174752     0.01500
C250        C  0.20004175  0.16127364  0.40290544     0.04300
C251        C  0.18115670  0.14100321  0.37376426    -0.11800
C252        C  0.15809676  0.14747712  0.35469011     0.23600
C253        C  0.15909980  0.17841444  0.36067449    -0.12300
C254        C  0.17861210  0.19964554  0.38912559     0.05000
C255        C  0.13082132  0.12010610  0.33122475     0.27400
C256        C  0.13626083  0.11954050  0.29485328    -0.13000
C257        C  0.11040966  0.09281171  0.27306928     0.05500
C258        C  0.07366835  0.06725338  0.28492082    -0.09000
C259        C  0.07197255  0.06814234  0.32442360     0.06300
C260        C  0.10037188  0.09292492  0.34645236    -0.13400
Br261      Br  0.13719683  0.19421182  0.32758434    -0.05400
Br262      Br  0.22619469  0.14605478  0.43085463     0.00200
Br263      Br  0.13236802  0.09728130  0.22704601     0.00600
Br264      Br  0.09819944  0.09171405  0.39949937    -0.03800
Br265      Br  0.17827200  0.24147724  0.39545313     0.00700
Br266      Br  0.18834144  0.10526656  0.35826033    -0.03100
Br267      Br  0.18118655  0.15707389  0.27591611    -0.03900
Br268      Br  0.03590890  0.03769066  0.35670809     0.00000
C269        C  0.05793751  0.06968920  0.21922304     0.01500
C270        C  0.07650695  0.10809642  0.21716110     0.04300
C271        C  0.09715324  0.12848158  0.18598479    -0.11800
C272        C  0.09407878  0.11364949  0.15243513     0.23600
C273        C  0.06553113  0.07898637  0.15112937    -0.12300
C274        C  0.05063812  0.05806883  0.18415918     0.05000
C275        C  0.12094249  0.13433776  0.12078571     0.27400
C276        C  0.11117087  0.14278491  0.08712505    -0.13000
C277        C  0.13628712  0.16286121  0.05944616     0.05500
C278        C  0.17220700  0.17783473  0.06521557    -0.09000
C279        C  0.18283280  0.17056607  0.09770230     0.06300
C280        C  0.15807562  0.14880225  0.12447028    -0.13400
Br281      Br  0.05031846  0.05749559  0.10501424    -0.05400
Br282      Br  0.08548208  0.13837440  0.25562488     0.00200
Br283      Br  0.12167671  0.16884197  0.01235128     0.00600
Br284      Br  0.17975722  0.14302091  0.16557704    -0.03800
Br285      Br  0.01736532  0.01239910  0.18479981     0.00700
Br286      Br  0.13455274  0.17656244  0.19122176    -0.03100
Br287      Br  0.06471195  0.13187970  0.07819842    -0.03900
Br288      Br  0.23284843  0.19300836  0.10629746     0.00000
O289        O  0.30028834  0.26623283  0.97006218    -0.71700
O290        O  0.22503212  0.19856127  0.52872653    -0.71900
O291        O  0.23982250  0.20813874  0.95824295    -0.71700
O292        O  0.28599923  0.25674417  0.54197303    -0.71700
O293        O  0.26494491  0.28965068  0.53435521    -0.71700
O294        O  0.21079792  0.23359388  0.95565358    -0.71700
O295        O  0.20203533  0.23022136  0.52853182    -0.71700
O296        O  0.27248833  0.29300166  0.96198358    -0.71800
V297        V  0.26186660  0.23299330  0.99972118     1.35200
V298        V  0.23823171  0.26110233  0.49544422     1.35200
C299        C  0.29862639  0.29047494  0.95476143     0.77600
C300        C  0.20086650  0.20308483  0.53926127     0.77600
C301        C  0.21689947  0.21170159  0.94284284     0.77500
C302        C  0.28475447  0.28244947  0.55173955     0.77500
O303        O  0.03449419  0.24434698  0.53702700    -0.71700
O304        O  0.02825393  0.29050393  0.95296354    -0.71900
O305        O  0.03306656  0.30216154  0.52521559    -0.71700
O306        O  0.02669614  0.23112077  0.96407438    -0.71700
O307        O  0.46630735  0.20027193  0.97152028    -0.71700
O308        O  0.47419506  0.27058906  0.53033724    -0.71700
O309        O  0.46706666  0.25948948  0.95895657    -0.71700
O310        O  0.47544028  0.21237940  0.54221512    -0.71800
V311        V  0.02920910  0.26651104  0.49556895     1.35200
V312        V  0.47124956  0.23618353  0.00065485     1.35200
C313        C  0.50505659  0.21899129  0.55318196     0.77600
C314        C  0.99913095  0.28562734  0.94322348     0.77600
C315        C  0.00567187  0.29878107  0.53944962     0.77500
C316        C  0.49303694  0.20255451  0.95727483     0.77500
O317        O  0.25915780  0.46642726  0.97185192    -0.71700
O318        O  0.21625919  0.48203621  0.55121358    -0.71900
O319        O  0.19835677  0.46425175  0.98278801    -0.71700
O320        O  0.27811079  0.48696621  0.54112530    -0.71700
O321        O  0.28819194  0.01836802  0.52870616    -0.71700
O322        O  0.21252406  0.00351496  0.96907378    -0.71700
O323        O  0.22857239  0.01597067  0.53893664    -0.71700
O324        O  0.27404574  0.00648764  0.95810679    -0.71800
V325        V  0.23841613  0.47560385  0.01105564     1.35200
V326        V  0.25013685  0.00869577  0.49889372     1.35200
C327        C  0.26990989  0.97750421  0.95135519     0.77600
C328        C  0.22206421  0.51124504  0.55885315     0.77600
C329        C  0.19639404  0.48779671  0.96614038     0.77500
C330        C  0.28776704  0.99452630  0.54720733     0.77500
C331        C  0.00570596  0.46013720  0.74037059    -0.02400
C332        C  0.49716603  0.04190778  0.75690865    -0.02400
C333        C  0.04095276  0.04159944  0.75509656    -0.02400
C334        C  0.04879084  0.50309069  0.75258047    -0.02400
C335        C  0.45273526  0.99920296  0.74783923    -0.02400
C336        C  0.46006477  0.45907858  0.74005968    -0.02400
C337        C  0.31489777  0.00289542  0.57518164     0.01500
C338        C  0.32408846  0.52504790  0.60498947     0.04300
C339        C  0.34529312  0.52308472  0.63132772    -0.11800
C340        C  0.36512435  0.02393666  0.63187222     0.23600
C341        C  0.37299650  0.04291248  0.59876642    -0.12300
C342        C  0.34891225  0.03189955  0.57038588     0.05000
C343        C  0.39367890  0.02484718  0.65559937     0.27400
C344        C  0.40779015  0.04501272  0.68554741    -0.13000
C345        C  0.41787381  0.03223905  0.71630398     0.05500
C346        C  0.42791089  0.00572845  0.71520267    -0.09000
C347        C  0.41207988  0.98639808  0.68257518     0.06300
C348        C  0.40063701  0.99879535  0.65225933    -0.13400
Br349      Br  0.41343917  0.08739252  0.59332152    -0.05400
Br350      Br  0.28406614  0.52742467  0.61911948     0.00200
Br351      Br  0.37512547  0.02459367  0.74005574     0.00600
Br352      Br  0.39705205  0.98505037  0.60243977    -0.03800
Br353      Br  0.36404433  0.05587868  0.52390522     0.00700
Br354      Br  0.32205466  0.50447576  0.67677421    -0.03100
Br355      Br  0.41088845  0.58457194  0.68252357    -0.03900
Br356      Br  0.36578214  0.94792611  0.68000803     0.00000
C357        C  0.42137674  0.99257041  0.78189452     0.01500
C358        C  0.41726719  0.01889608  0.80039893     0.04300
C359        C  0.39395043  0.01330089  0.83062584    -0.11800
C360        C  0.36912422  0.98073239  0.84332993     0.23600
C361        C  0.37603433  0.46011221  0.83140928    -0.12300
C362        C  0.39349581  0.46335052  0.79692046     0.05000
C363        C  0.34124569  0.97606640  0.87142612     0.27400
C364        C  0.34781225  0.97873045  0.90901513    -0.13000
C365        C  0.32245320  0.97484900  0.93448046     0.05500
C366        C  0.29240502  0.97452169  0.92346347    -0.09000
C367        C  0.29444386  0.48786350  0.88430621     0.06300
C368        C  0.30998954  0.97453292  0.86055139    -0.13400
Br369      Br  0.33973957  0.41670354  0.85369369    -0.05400
Br370      Br  0.43727761  0.06457922  0.78758937     0.00200
Br371      Br  0.33002437  0.97206349  0.98529166     0.00600
Br372      Br  0.31017450  0.49090859  0.80859265    -0.03800
Br373      Br  0.34829997  0.44750657  0.77597366     0.00700
Br374      Br  0.39464303  0.04995572  0.85748421    -0.03100
Br375      Br  0.39350412  0.99540622  0.92698897    -0.03900
Br376      Br  0.25545352  0.49143131  0.86870508     0.00000
C377        C  0.06828628  0.49207909  0.79017426     0.01500
C378        C  0.06088676  0.99369594  0.82847108     0.04300
C379        C  0.06018777  0.97314007  0.85919225    -0.11800
C380        C  0.08897962  0.46547489  0.85865666     0.23600
C381        C  0.09919544  0.46187259  0.82451753    -0.12300
C382        C  0.09135034  0.47567581  0.79182552     0.05000
C383        C  0.11313911  0.46968229  0.89060503     0.27400
C384        C  0.13501594  0.99279175  0.89922837    -0.13000
C385        C  0.15417446  0.99681885  0.93017351     0.05500
C386        C  0.16534711  0.48079594  0.94355499    -0.09000
C387        C  0.13767090  0.44704115  0.93610992     0.06300
C388        C  0.11149944  0.44168850  0.91078313    -0.13400
Br389      Br  0.13091449  0.44273679  0.82769498    -0.05400
Br390      Br  0.10219743  0.03010026  0.85132011     0.00200
Br391      Br  0.18244344  0.04296661  0.94708093     0.00600
Br392      Br  0.08105485  0.39542276  0.89700036    -0.03800
Br393      Br  0.13331278  0.48385011  0.76450437     0.00700
Br394      Br  0.04349914  0.97889986  0.90550471    -0.03100
Br395      Br  0.16656872  0.01984720  0.86006661    -0.03900
Br396      Br  0.13593778  0.40725693  0.95841447     0.00000
C397        C  0.08453971  0.51538872  0.72409046     0.01500
C398        C  0.08300737  0.50630647  0.68664773     0.04300
C399        C  0.10849002  0.50063326  0.66970931    -0.11800
C400        C  0.14349903  0.51897280  0.67985689     0.23600
C401        C  0.14613793  0.03188065  0.71066175    -0.12300
C402        C  0.11840293  0.02905722  0.73416568     0.05000
C403        C  0.17122785  0.52158751  0.65422671     0.27400
C404        C  0.17620565  0.49366752  0.65161685    -0.13000
C405        C  0.19255495  0.49013053  0.62089454     0.05500
C406        C  0.20561054  0.51548948  0.59222217    -0.09000
C407        C  0.19313692  0.02848298  0.59659885     0.06300
C408        C  0.18063228  0.03508745  0.62839464    -0.13400
Br409      Br  0.19565828  0.05920923  0.72160897    -0.05400
Br410      Br  0.10088814  0.54274591  0.65022906     0.00200
Br411      Br  0.19536934  0.44916168  0.61940255     0.00600
Br412      Br  0.18626097  0.07939255  0.63277444    -0.03800
Br413      Br  0.14044161  0.04910465  0.77955505     0.00700
Br414      Br  0.09819260  0.47162300  0.62878625    -0.03100
Br415      Br  0.15905007  0.45899021  0.68971732    -0.03900
Br416      Br  0.20658382  0.06144637  0.55658908     0.00000
C417        C  0.01382219  0.44543722  0.69931014     0.01500
C418        C  0.49838173  0.44177506  0.66237123     0.05800
C419        C  0.49108563  0.41529477  0.63650392    -0.11800
C420        C  0.00856009  0.39786135  0.63970503     0.23600
C421        C  0.03128795  0.40556134  0.66773807    -0.12300
C422        C  0.03503352  0.42943531  0.69483884     0.05000
C423        C  0.00501011  0.37223603  0.61182414     0.27400
C424        C  0.48598448  0.33437561  0.62017810    -0.13000
C425        C  0.48510666  0.31083817  0.59568578     0.05500
C426        C  0.00657375  0.32449777  0.56424980    -0.09000
C427        C  0.02438047  0.35983919  0.55487082     0.06300
C428        C  0.02269704  0.38334581  0.57772194    -0.13400
Br429      Br  0.05872861  0.38287181  0.66650467    -0.05400
Br430      Br  0.52770197  0.47423264  0.62408294     0.00200
Br431      Br  0.45937262  0.26240224  0.60878384     0.00600
Br432      Br  0.04530183  0.43054394  0.56086947    -0.03800
Br433      Br  0.07485150  0.43917894  0.71886613     0.00700
Br434      Br  0.46477204  0.40814529  0.59287766    -0.03100
Br435      Br  0.46595488  0.31635858  0.66735024    -0.03900
Br436      Br  0.05131739  0.37638775  0.51049348     0.00000
C437        C  0.00037013  0.42595717  0.77016971     0.01500
C438        C  0.47054959  0.40046563  0.79507091     0.04300
C439        C  0.47551741  0.38518104  0.82756617    -0.11800
C440        C  0.00645791  0.38297131  0.83070824     0.23600
C441        C  0.02977002  0.39652997  0.80099210    -0.12300
C442        C  0.02061982  0.40938546  0.76991366     0.05000
C443        C  0.00590573  0.35731461  0.85927053     0.27400
C444        C  0.00203016  0.36134422  0.89667804    -0.13000
C445        C  0.99405727  0.33504687  0.92252977     0.05500
C446        C  0.99774218  0.30750309  0.91375414    -0.09000
C447        C  0.49831326  0.30013272  0.87656915     0.06300
C448        C  0.49829292  0.32270603  0.84964335    -0.13400
Br449      Br  0.06286038  0.38167818  0.79468294    -0.05400
Br450      Br  0.42906009  0.36178710  0.77802295     0.00200
Br451      Br  0.97658469  0.33608163  0.96974181     0.00600
Br452      Br  0.48271366  0.30378512  0.80306291    -0.03800
Br453      Br  0.00129197  0.36721960  0.74336191     0.00700
Br454      Br  0.43697605  0.35415411  0.86019295    -0.03100
Br455      Br  0.00934028  0.40310347  0.91468135    -0.03900
Br456      Br  0.50283187  0.26200847  0.86347395     0.00000
C457        C  0.49001633  0.17520475  0.93347692     0.01500
C458        C  0.46571842  0.16256350  0.90542111     0.04300
C459        C  0.46638670  0.14042138  0.87986615    -0.11800
C460        C  0.48903307  0.12748607  0.88373104     0.23600
C461        C  0.01458271  0.14122171  0.91305207    -0.12300
C462        C  0.01517363  0.16466713  0.93763728     0.05000
C463        C  0.48958883  0.10379459  0.85554623     0.27400
C464        C  0.48086213  0.06981174  0.86330925    -0.13000
C465        C  0.48030477  0.04755214  0.83528487     0.05500
C466        C  0.49890146  0.06072516  0.79903955    -0.09000
C467        C  0.01902036  0.09913685  0.80258500     0.06300
C468        C  0.00757997  0.11832350  0.82278199    -0.13400
Br469      Br  0.05043716  0.13043692  0.91895360    -0.05400
Br470      Br  0.43168985  0.17622315  0.90098517     0.00200
Br471      Br  0.45240842  0.00146812  0.85598429     0.00600
Br472      Br  0.02690783  0.16779997  0.81335463    -0.03800
Br473      Br  0.04516808  0.17754630  0.97900803     0.00700
Br474      Br  0.43962782  0.13280552  0.83690545    -0.03100
Br475      Br  0.47422046  0.05612344  0.91412868    -0.03900
Br476      Br  0.05896862  0.12355174  0.83294163     0.00000
C477        C  0.49929680  0.07520983  0.72544848     0.01500
C478        C  0.01214063  0.11244894  0.73485649     0.04300
C479        C  0.02907861  0.14309055  0.71103245    -0.11800
C480        C  0.51659642  0.13900232  0.67428419     0.23600
C481        C  0.50003171  0.10562031  0.66246627    -0.12300
C482        C  0.49410455  0.07621180  0.68548864     0.05000
C483        C  0.51832700  0.16848661  0.65041926     0.27400
C484        C  0.48837521  0.17107869  0.64561432    -0.13000
C485        C  0.48247298  0.18383459  0.61290294     0.05500
C486        C  0.50966198  0.20181295  0.58674924    -0.09000
C487        C  0.04523355  0.20627652  0.59533007     0.06300
C488        C  0.04913687  0.18989271  0.62650931    -0.13400
Br489      Br  0.48925174  0.10374818  0.61114463    -0.05400
Br490      Br  0.97998573  0.12772438  0.74368829     0.00200
Br491      Br  0.43608433  0.17554795  0.60563993     0.00600
Br492      Br  0.09436324  0.19869806  0.63688161    -0.03800
Br493      Br  0.47859821  0.04225660  0.65251629     0.00700
Br494      Br  0.05867044  0.18965285  0.72799463    -0.03100
Br495      Br  0.46161396  0.16980675  0.68639867    -0.03900
Br496      Br  0.08496742  0.23039308  0.56236035     0.00000
C497        C  0.43690062  0.43092910  0.70493290     0.01500
C498        C  0.42169671  0.39379321  0.71072905     0.04300
C499        C  0.39088330  0.36700345  0.69396952    -0.11800
C500        C  0.38028365  0.37317358  0.66103663     0.23600
C501        C  0.40131535  0.40614806  0.64601035    -0.12300
C502        C  0.42839481  0.43432147  0.66666900     0.05000
C503        C  0.35236928  0.34437550  0.63859899     0.27400
C504        C  0.36178191  0.32638945  0.61519590    -0.13000
C505        C  0.34089423  0.30858068  0.58583437     0.05500
C506        C  0.30735523  0.30381556  0.58188803    -0.09000
C507        C  0.29616499  0.31902964  0.60712413     0.06300
C508        C  0.31893492  0.34004204  0.63439351    -0.13400
Br509      Br  0.39404610  0.40821849  0.59379146    -0.05400
Br510      Br  0.44445073  0.37126181  0.69615000     0.00200
Br511      Br  0.36107912  0.29497864  0.54841343     0.00600
Br512      Br  0.30418803  0.36310959  0.66573064    -0.03800
Br513      Br  0.45463897  0.47055813  0.63277873     0.00700
Br514      Br  0.36169597  0.32197963  0.71730415    -0.03100
Br515      Br  0.40381518  0.32623604  0.62198980    -0.03900
Br516      Br  0.24954849  0.31096724  0.60488893     0.00000
C517        C  0.32602966  0.31503320  0.92831585     0.01500
C518        C  0.33154564  0.30354985  0.89578730     0.04300
C519        C  0.35488696  0.32713831  0.86886928    -0.11800
C520        C  0.37298538  0.36398775  0.87326210     0.23600
C521        C  0.36791520  0.37427493  0.90784611    -0.12300
C522        C  0.34506557  0.35021120  0.93466581     0.05000
C523        C  0.39364759  0.39023665  0.84116141     0.27400
C524        C  0.42826179  0.41984304  0.84249469    -0.13000
C525        C  0.44611976  0.44117899  0.81088735     0.05500
C526        C  0.43375628  0.43447991  0.77516271    -0.09000
C527        C  0.39627857  0.40671122  0.77601532     0.06300
C528        C  0.37753462  0.38569683  0.80755295    -0.13400
Br529      Br  0.38884161  0.42073514  0.92087477    -0.05400
Br530      Br  0.30463180  0.25470135  0.88737186     0.00200
Br531      Br  0.49272074  0.47480362  0.81469700     0.00600
Br532      Br  0.32673429  0.35193012  0.80609104    -0.03800
Br533      Br  0.33932279  0.36507287  0.98134079     0.00700
Br534      Br  0.35984477  0.30583890  0.82656455    -0.03100
Br535      Br  0.45582046  0.43011590  0.88554522    -0.03900
Br536      Br  0.36328269  0.39685020  0.73935250     0.00000
C537        C  0.19777627  0.19047407  0.91096155     0.01500
C538        C  0.20177346  0.16280992  0.90022848     0.04300
C539        C  0.18157777  0.14144354  0.87222974    -0.11800
C540        C  0.15755675  0.14711685  0.85403402     0.23600
C541        C  0.15750409  0.17735251  0.86077611    -0.12300
C542        C  0.17571822  0.19778699  0.89012943     0.05000
C543        C  0.13037277  0.11967142  0.83063918     0.27400
C544        C  0.13598517  0.11893522  0.79435093    -0.13000
C545        C  0.11020350  0.09215638  0.77260623     0.05500
C546        C  0.07333147  0.06690148  0.78436687    -0.09000
C547        C  0.07138022  0.06798346  0.82381109     0.06300
C548        C  0.09977089  0.09271659  0.84584654    -0.13400
Br549      Br  0.13675377  0.19389710  0.82704857    -0.05400
Br550      Br  0.23381310  0.15200414  0.92314702     0.00200
Br551      Br  0.13231686  0.09646582  0.72664852     0.00600
Br552      Br  0.09750092  0.09163396  0.89885972    -0.03800
Br553      Br  0.16892579  0.23530591  0.90061907     0.00700
Br554      Br  0.18787963  0.10497596  0.85726067    -0.03100
Br555      Br  0.18072231  0.15670725  0.77531279    -0.03900
Br556      Br  0.03506292  0.03761639  0.85599684     0.00000
C557        C  0.05809069  0.06957748  0.71870093     0.01500
C558        C  0.07686629  0.10800289  0.71676315     0.04300
C559        C  0.09768588  0.12844653  0.68571123    -0.11800
C560        C  0.09492660  0.11366549  0.65222062     0.23600
C561        C  0.06638440  0.07902398  0.65068104    -0.12300
C562        C  0.05109225  0.05803839  0.68360647     0.05000
C563        C  0.12199314  0.13451882  0.62081535     0.27400
C564        C  0.11244839  0.14344343  0.58731011    -0.13000
C565        C  0.13772342  0.16402963  0.55999541     0.05500
C566        C  0.17354601  0.17845983  0.56576144    -0.09000
C567        C  0.18400802  0.17089705  0.59817323     0.06300
C568        C  0.15910711  0.14897900  0.62475825    -0.13400
Br569      Br  0.05139421  0.05775674  0.60439862    -0.05400
Br570      Br  0.08584022  0.13814014  0.75533444     0.00200
Br571      Br  0.12352974  0.17213409  0.51356501     0.00600
Br572      Br  0.18055903  0.14318235  0.66608101    -0.03800
Br573      Br  0.01738854  0.01247745  0.68409299     0.00700
Br574      Br  0.13478143  0.17663263  0.69091766    -0.03100
Br575      Br  0.06601700  0.13229306  0.57806418    -0.03900
Br576      Br  0.23397258  0.19356570  0.60708295     0.00000
O577        O  0.29967515  0.76669260  0.47257329    -0.71700
O578        O  0.22096925  0.69732933  0.02504760    -0.71900
O579        O  0.24024840  0.71045790  0.45627012    -0.71700
O580        O  0.28097641  0.75462551  0.04241492    -0.71700
O581        O  0.26176235  0.78881370  0.03383529    -0.71700
O582        O  0.20985192  0.73459955  0.45402757    -0.71700
O583        O  0.19879638  0.72965771  0.02578500    -0.71700
O584        O  0.27182448  0.79303477  0.46174010    -0.71800
V585        V  0.25956039  0.73273957  0.49944019     1.35200
V586        V  0.23592937  0.76103246  0.99385439     1.35200
C587        C  0.29823203  0.79055909  0.45614221     0.77600
C588        C  0.19707552  0.70211278  0.03587785     0.77600
C589        C  0.21761286  0.71409714  0.44043663     0.77500
C590        C  0.28051166  0.78072018  0.05207695     0.77500
O591        O  0.02871810  0.74047198  0.03459902    -0.71700
O592        O  0.02054947  0.78753476  0.45331630    -0.71900
O593        O  0.02690283  0.79800565  0.02467186    -0.71700
O594        O  0.02205722  0.73005678  0.46325443    -0.71700
O595        O  0.46487121  0.70005463  0.46894272    -0.71700
O596        O  0.46880881  0.76607508  0.03245299    -0.71700
O597        O  0.46395228  0.75839999  0.46037942    -0.71700
O598        O  0.47180332  0.70857805  0.04150230    -0.71800
V599        V  0.02296036  0.76305532  0.99412374     1.35200
V600        V  0.46940131  0.73439939  0.50039066     1.35200
C601        C  0.50198669  0.71636325  0.05170354     0.77600
C602        C  0.99108903  0.78140172  0.44331942     0.77600
C603        C  0.99965771  0.79441306  0.03938253     0.77500
C604        C  0.49187475  0.70296983  0.45463699     0.77500
O605        O  0.24757432  0.94910313  0.47234071    -0.71700
O606        O  0.20208640  0.96292985  0.05164078    -0.71900
O607        O  0.18612226  0.94741499  0.48324576    -0.71700
O608        O  0.26299545  0.96594946  0.04161593    -0.71700
O609        O  0.30311365  0.53924486  0.02185121    -0.71700
O610        O  0.22295572  0.51893003  0.46907788    -0.71700
O611        O  0.24246742  0.53570793  0.03669651    -0.71700
O612        O  0.28336958  0.52123982  0.45452183    -0.71800
V613        V  0.22513819  0.95653618  0.51213466     1.35200
V614        V  0.26214771  0.52712262  0.99521421     1.35200
C615        C  0.27956410  0.49193625  0.45022939     0.77600
C616        C  0.20759051  0.99215871  0.05948525     0.77600
C617        C  0.18543760  0.97200795  0.46743114     0.77500
C618        C  0.30369890  0.51651984  0.04140661     0.77500
C619        C  0.00189898  0.95711020  0.24102741    -0.02400
C620        C  0.49997610  0.54416847  0.25560961    -0.02400
C621        C  0.04493415  0.54501535  0.25420212    -0.02400
C622        C  0.04535888  0.99955159  0.25359880    -0.02400
C623        C  0.45573346  0.50070950  0.24779911    -0.02400
C624        C  0.45642709  0.95668825  0.24030539    -0.02400
C625        C  0.33209163  0.52579502  0.06780027     0.01500
C626        C  0.30525899  0.98458240  0.10826134     0.04300
C627        C  0.32871348  0.99512953  0.13718240    -0.11800
C628        C  0.37865310  0.52839628  0.12218979     0.23600
C629        C  0.38831730  0.53291758  0.08475783    -0.12300
C630        C  0.36537819  0.53234067  0.05803956     0.05000
C631        C  0.39945630  0.52250687  0.15126342     0.27400
C632        C  0.41330378  0.54362767  0.18111947    -0.13000
C633        C  0.42020488  0.53072803  0.21364227     0.05500
C634        C  0.43009913  0.50468947  0.21456253    -0.09000
C635        C  0.40783063  0.48042253  0.18713404     0.06300
C636        C  0.39804341  0.49097794  0.15386383    -0.13400
Br637      Br  0.42941601  0.53346756  0.06818235    -0.05400
Br638      Br  0.26040403  0.94258479  0.11468017     0.00200
Br639      Br  0.37685861  0.52064167  0.23745999     0.00600
Br640      Br  0.37247317  0.46016753  0.11450756    -0.03800
Br641      Br  0.38004428  0.54225906  0.00820995     0.00700
Br642      Br  0.30987684  0.97417028  0.18377953    -0.03100
Br643      Br  0.40184551  0.08371983  0.18925477    -0.03900
Br644      Br  0.35794253  0.45178938  0.19486968     0.00000
C645        C  0.42550556  0.49584257  0.28269518     0.01500
C646        C  0.42071490  0.52325932  0.29741429     0.04300
C647        C  0.39763345  0.52027609  0.32680479    -0.11800
C648        C  0.37623630  0.48950689  0.34526660     0.23600
C649        C  0.36779126  0.95239783  0.32634437    -0.12300
C650        C  0.38704869  0.95956257  0.29227290     0.05000
C651        C  0.34808893  0.48590963  0.37200391     0.27400
C652        C  0.35109056  0.48277405  0.40965262    -0.13000
C653        C  0.32532662  0.47924074  0.43395753     0.05500
C654        C  0.30002328  0.48642956  0.42253997    -0.09000
C655        C  0.28674018  0.97329020  0.38744660     0.06300
C656        C  0.31879562  0.48775273  0.36018126    -0.13400
Br657      Br  0.32597770  0.90826957  0.33891800    -0.05400
Br658      Br  0.44099057  0.56767832  0.28038132     0.00200
Br659      Br  0.32464189  0.46384073  0.48316722     0.00600
Br660      Br  0.30183064  0.97547653  0.31170041    -0.03800
Br661      Br  0.34664652  0.94746971  0.26401322     0.00700
Br662      Br  0.39317093  0.55809861  0.34407658    -0.03100
Br663      Br  0.39270350  0.49025274  0.43061053    -0.03900
Br664      Br  0.24823325  0.97752862  0.37159896     0.00000
C665        C  0.06415511  0.98755969  0.29101663     0.01500
C666        C  0.06753227  0.49978089  0.32792283     0.04300
C667        C  0.06827631  0.48025838  0.35892978    -0.11800
C668        C  0.08278545  0.95897682  0.35948448     0.23600
C669        C  0.09470773  0.95699787  0.32557001    -0.12300
C670        C  0.08718617  0.97114210  0.29285416     0.05000
C671        C  0.10476086  0.96072506  0.39253001     0.27400
C672        C  0.14619880  0.50272090  0.39419073    -0.13000
C673        C  0.16685042  0.50939894  0.42452785     0.05500
C674        C  0.15459491  0.96703818  0.44600575    -0.09000
C675        C  0.12661994  0.93422011  0.43656805     0.06300
C676        C  0.10184357  0.93117605  0.41063172    -0.13400
Br677      Br  0.12758937  0.93909450  0.32923240    -0.05400
Br678      Br  0.10851132  0.53710282  0.35063220     0.00200
Br679      Br  0.19779930  0.55724898  0.43497622     0.00600
Br680      Br  0.07256697  0.88633860  0.39277127    -0.03800
Br681      Br  0.12855668  0.97868848  0.26556462     0.00700
Br682      Br  0.05184045  0.48566068  0.40566933    -0.03100
Br683      Br  0.17458908  0.52737501  0.35223868    -0.03900
Br684      Br  0.12223273  0.89269869  0.45753294     0.00000
C685        C  0.08114302  0.01154021  0.22492216     0.01500
C686        C  0.07959731  0.00270560  0.18728730     0.04300
C687        C  0.10398564  0.99541757  0.17048615    -0.11800
C688        C  0.13866518  0.01147169  0.18156682     0.23600
C689        C  0.15184390  0.53937321  0.20954819    -0.12300
C690        C  0.12363034  0.53445715  0.23356341     0.05000
C691        C  0.16547328  0.01128160  0.15656657     0.27400
C692        C  0.16759946  0.98149408  0.15453335    -0.13000
C693        C  0.17967555  0.97419298  0.12270620     0.05500
C694        C  0.19169459  0.99761043  0.09252939    -0.09000
C695        C  0.20248569  0.54446349  0.09489939     0.06300
C696        C  0.18702769  0.54820336  0.12622282    -0.13400
Br697      Br  0.20144058  0.56892275  0.21969055    -0.05400
Br698      Br  0.09996767  0.03996613  0.15147661     0.00200
Br699      Br  0.17574164  0.93002680  0.12056494     0.00600
Br700      Br  0.18755614  0.59010048  0.13113345    -0.03800
Br701      Br  0.14592964  0.55504553  0.27842725     0.00700
Br702      Br  0.09321050  0.96774997  0.12813195    -0.03100
Br703      Br  0.15361673  0.95003702  0.19527598    -0.03900
Br704      Br  0.21517503  0.57786581  0.05555481     0.00000
C705        C  0.00978628  0.94213592  0.19979608     0.01500
C706        C  0.49423246  0.93896053  0.16305177     0.05800
C707        C  0.48602612  0.91205327  0.13758611    -0.11800
C708        C  0.00330939  0.89409316  0.13971317     0.23600
C709        C  0.02668361  0.90207981  0.16735312    -0.12300
C710        C  0.03070050  0.92581660  0.19491662     0.05000
C711        C  0.99909381  0.86800812  0.11183853     0.27400
C712        C  0.48269405  0.83121011  0.12200006    -0.13000
C713        C  0.48292911  0.80768338  0.09817904     0.05500
C714        C  0.00106615  0.82021250  0.06440438    -0.09000
C715        C  0.01784928  0.85539183  0.05449561     0.06300
C716        C  0.01613952  0.87889529  0.07739324    -0.13400
Br717      Br  0.05492805  0.88033156  0.16467509    -0.05400
Br718      Br  0.52347523  0.97044663  0.12383798     0.00200
Br719      Br  0.46432617  0.76045630  0.11414275     0.00600
Br720      Br  0.03840574  0.92598109  0.06039810    -0.03800
Br721      Br  0.07004419  0.93456016  0.21949288     0.00700
Br722      Br  0.45563612  0.90277793  0.09694095    -0.03100
Br723      Br  0.46346312  0.81365015  0.16940400    -0.03900
Br724      Br  0.04456879  0.87188123  0.00989662     0.00000
C725        C  0.99568453  0.92243019  0.27034704     0.01500
C726        C  0.46713307  0.89851657  0.29530800     0.04300
C727        C  0.47226633  0.88402476  0.32819226    -0.11800
C728        C  0.00032109  0.87906616  0.33112432     0.23600
C729        C  0.02415367  0.89251060  0.30181817    -0.12300
C730        C  0.01582760  0.90576543  0.27053339     0.05000
C731        C  0.99854199  0.85280546  0.35955188     0.27400
C732        C  0.99406824  0.85657198  0.39694102    -0.13000
C733        C  0.98513977  0.82989658  0.42248294     0.05500
C734        C  0.98915851  0.80260702  0.41379086    -0.09000
C735        C  0.49512650  0.79849537  0.37707692     0.06300
C736        C  0.49467625  0.82072400  0.35011241    -0.13400
Br737      Br  0.05792998  0.87836538  0.29650299    -0.05400
Br738      Br  0.42631453  0.85873028  0.27885096     0.00200
Br739      Br  0.96659676  0.83032683  0.46932878     0.00600
Br740      Br  0.48025466  0.80181585  0.30336158    -0.03800
Br741      Br  0.99717033  0.86373294  0.24382733     0.00700
Br742      Br  0.43393526  0.85440283  0.36139678    -0.03100
Br743      Br  0.00145895  0.89823623  0.41535867    -0.03900
Br744      Br  0.50292663  0.76234460  0.36427499     0.00000
C745        C  0.48944215  0.67705947  0.42913257     0.01500
C746        C  0.46698172  0.66700022  0.39942563     0.04300
C747        C  0.46899592  0.64671322  0.37244695    -0.11800
C748        C  0.49032883  0.63242975  0.37687412     0.23600
C749        C  0.01216652  0.64225574  0.40820334    -0.12300
C750        C  0.01286598  0.66539954  0.43317552     0.05000
C751        C  0.49059762  0.60835205  0.34920600     0.27400
C752        C  0.47924867  0.57391238  0.35786095    -0.13000
C753        C  0.48226547  0.55134180  0.33277347     0.05500
C754        C  0.50203683  0.56382432  0.29722550    -0.09000
C755        C  0.02386677  0.60255373  0.30092166     0.06300
C756        C  0.01266069  0.62317233  0.31862195    -0.13400
Br757      Br  0.03991649  0.62223700  0.41913832    -0.05400
Br758      Br  0.43257389  0.68016835  0.39570004     0.00200
Br759      Br  0.45751794  0.50576189  0.35536167     0.00600
Br760      Br  0.03505775  0.67354731  0.30963135    -0.03800
Br761      Br  0.04223057  0.67690724  0.47483318     0.00700
Br762      Br  0.44499961  0.64206780  0.32806101    -0.03100
Br763      Br  0.46058826  0.55982543  0.40637515    -0.03900
Br764      Br  0.06148227  0.62682971  0.33468938     0.00000
C765        C  0.50152123  0.57720760  0.22378265     0.01500
C766        C  0.01596021  0.61508468  0.23290817     0.04300
C767        C  0.03191584  0.64461946  0.20754167    -0.11800
C768        C  0.51887522  0.64060806  0.17173478     0.23600
C769        C  0.49816393  0.60661013  0.16174967    -0.12300
C770        C  0.49380080  0.57749327  0.18432182     0.05000
C771        C  0.52001605  0.67029949  0.14897392     0.27400
C772        C  0.48944089  0.67194433  0.14485762    -0.13000
C773        C  0.48173627  0.68221243  0.11174505     0.05500
C774        C  0.50813873  0.70025422  0.08493962    -0.09000
C775        C  0.04139682  0.70512386  0.09311698     0.06300
C776        C  0.04660533  0.69041924  0.12475136    -0.13400
Br777      Br  0.47683527  0.60273571  0.11457047    -0.05400
Br778      Br  0.98647465  0.63395690  0.24343142     0.00200
Br779      Br  0.43383785  0.66948054  0.10478233     0.00600
Br780      Br  0.09321738  0.70360156  0.13539856    -0.03800
Br781      Br  0.47856719  0.54362420  0.15102239     0.00700
Br782      Br  0.06361504  0.69181584  0.22230598    -0.03100
Br783      Br  0.46459911  0.67363224  0.18596868    -0.03900
Br784      Br  0.08063992  0.72949072  0.05949279     0.00000
C785        C  0.43351190  0.92823294  0.20567186     0.01500
C786        C  0.41877825  0.89105891  0.21128132     0.04300
C787        C  0.38825564  0.86396004  0.19441513    -0.11800
C788        C  0.37622482  0.87042914  0.16255954     0.23600
C789        C  0.39593896  0.90397242  0.14839556    -0.12300
C790        C  0.42411329  0.93182923  0.16827656     0.05000
C791        C  0.34780186  0.84175173  0.14026377     0.27400
C792        C  0.35586883  0.82148510  0.11892358    -0.13000
C793        C  0.33410743  0.80185936  0.09071771     0.05500
C794        C  0.30279884  0.80131325  0.08311269    -0.09000
C795        C  0.29363596  0.82024217  0.10555992     0.06300
C796        C  0.31533625  0.83923984  0.13444033    -0.13400
Br797      Br  0.38425112  0.90855372  0.09864986    -0.05400
Br798      Br  0.44165839  0.86850205  0.19758287     0.00200
Br799      Br  0.35043112  0.77866936  0.06059236     0.00600
Br800      Br  0.29976984  0.86105843  0.16663272    -0.03800
Br801      Br  0.45190120  0.96724256  0.13432929     0.00700
Br802      Br  0.35952158  0.81881805  0.21792333    -0.03100
Br803      Br  0.39744571  0.82056323  0.12710129    -0.03900
Br804      Br  0.25184455  0.82135919  0.09682035     0.00000
C805        C  0.32562868  0.81430458  0.42960504     0.01500
C806        C  0.33232760  0.80162827  0.39858404     0.04300
C807        C  0.35306024  0.82422150  0.36978089    -0.11800
C808        C  0.36807850  0.86101054  0.37159618     0.23600
C809        C  0.36147216  0.87257965  0.40422876    -0.12300
C810        C  0.34166942  0.84977225  0.43304355     0.05000
C811        C  0.38859258  0.88661828  0.33958119     0.27400
C812        C  0.42253036  0.91685082  0.34208106    -0.13000
C813        C  0.44121101  0.93815192  0.31079883     0.05500
C814        C  0.42953392  0.93157110  0.27485343    -0.09000
C815        C  0.39219493  0.90306797  0.27483292     0.06300
C816        C  0.37341337  0.88102238  0.30559562    -0.13400
Br817      Br  0.37473355  0.91887868  0.40984255    -0.05400
Br818      Br  0.31161745  0.75241666  0.39523681     0.00200
Br819      Br  0.48800730  0.97114603  0.31539281     0.00600
Br820      Br  0.32383455  0.84365711  0.30235832    -0.03800
Br821      Br  0.33685211  0.86689642  0.47854999     0.00700
Br822      Br  0.35860373  0.80156557  0.32889138    -0.03100
Br823      Br  0.44738261  0.92761665  0.38731160    -0.03900
Br824      Br  0.35876283  0.89274939  0.23829899     0.00000
C825        C  0.20098188  0.69438712  0.40717350     0.01500
C826        C  0.20355402  0.66549182  0.39843540     0.04300
C827        C  0.18634420  0.64604931  0.36834423    -0.11800
C828        C  0.16386934  0.65268308  0.34848832     0.23600
C829        C  0.16502192  0.68375041  0.35374098    -0.12300
C830        C  0.18357242  0.70466271  0.38276985     0.05000
C831        C  0.13619268  0.62490471  0.32598366     0.27400
C832        C  0.14164033  0.62225867  0.29009197    -0.13000
C833        C  0.11471401  0.59573013  0.26901375     0.05500
C834        C  0.07801704  0.57110202  0.28204176    -0.09000
C835        C  0.07668642  0.57361412  0.32114885     0.06300
C836        C  0.10541828  0.59914085  0.34208446    -0.13400
Br837      Br  0.14431193  0.69951999  0.31910758    -0.05400
Br838      Br  0.22874529  0.64985588  0.42740539     0.00200
Br839      Br  0.13481487  0.59979435  0.22179227     0.00600
Br840      Br  0.10321364  0.60064213  0.39496971    -0.03800
Br841      Br  0.18610175  0.74804805  0.38707533     0.00700
Br842      Br  0.19509030  0.61141897  0.35267752    -0.03100
Br843      Br  0.18835193  0.65596821  0.27121381    -0.03900
Br844      Br  0.04054371  0.54403318  0.35398345     0.00000
C845        C  0.06054679  0.57277855  0.21816853     0.01500
C846        C  0.07874318  0.61118344  0.21681921     0.04300
C847        C  0.09793076  0.63183722  0.18542180    -0.11800
C848        C  0.09515617  0.61681340  0.15224526     0.23600
C849        C  0.06711199  0.58202002  0.15052776    -0.12300
C850        C  0.05248790  0.56102423  0.18330085     0.05000
C851        C  0.12137846  0.63753231  0.12081693     0.27400
C852        C  0.11020871  0.64567602  0.08810806    -0.13000
C853        C  0.13442494  0.66546487  0.05972709     0.05500
C854        C  0.17034234  0.67795146  0.06304271    -0.09000
C855        C  0.18207519  0.67043057  0.09469448     0.06300
C856        C  0.15864803  0.65201584  0.12359400    -0.13400
Br857      Br  0.05254237  0.56064536  0.10413067    -0.05400
Br858      Br  0.08914569  0.64117094  0.25617603     0.00200
Br859      Br  0.11842589  0.67496983  0.01538880     0.00600
Br860      Br  0.18311100  0.65446720  0.16663812    -0.03800
Br861      Br  0.01944289  0.51513184  0.18389822     0.00700
Br862      Br  0.13266466  0.68090926  0.18926807    -0.03100
Br863      Br  0.06264984  0.63427579  0.08262350    -0.03900
Br864      Br  0.23218665  0.68897663  0.09983872     0.00000
O865        O  0.30011946  0.76750193  0.97189430    -0.71700
O866        O  0.21992257  0.69734979  0.52555680    -0.71900
O867        O  0.24109667  0.71064789  0.95571836    -0.71700
O868        O  0.28046757  0.75433762  0.54298133    -0.71700
O869        O  0.26189690  0.78901345  0.53398316    -0.71700
O870        O  0.21019355  0.73425667  0.95366765    -0.71700
O871        O  0.19840459  0.73026337  0.52607609    -0.71700
O872        O  0.27160597  0.79325999  0.96154354    -0.71800
V873        V  0.26029387  0.73307660  0.99886569     1.35200
V874        V  0.23583349  0.76126836  0.49412382     1.35200
C875        C  0.29820741  0.79120734  0.95566579     0.77600
C876        C  0.19624435  0.70251542  0.53622742     0.77600
C877        C  0.21826922  0.71401119  0.93995167     0.77500
C878        C  0.28039927  0.78071999  0.55238471     0.77500
O879        O  0.02913254  0.74123770  0.53486926    -0.71700
O880        O  0.01976469  0.78712857  0.95351215    -0.71900
O881        O  0.02680612  0.79840456  0.52464932    -0.71700
O882        O  0.02100243  0.72948941  0.96303021    -0.71700
O883        O  0.46252651  0.69845863  0.96959062    -0.71700
O884        O  0.47118424  0.76749401  0.53194755    -0.71700
O885        O  0.46086166  0.75657172  0.96104138    -0.71700
O886        O  0.47339473  0.70950268  0.54074839    -0.71800
V887        V  0.02351894  0.76361169  0.49416610     1.35200
V888        V  0.46701083  0.73291654  0.00100178     1.35200
C889        C  0.50333279  0.71713598  0.55157256     0.77600
C890        C  0.99025545  0.78114675  0.94386807     0.77600
C891        C  0.99933192  0.79444570  0.53925286     0.77500
C892        C  0.48954055  0.70194420  0.95459624     0.77500
O893        O  0.24847400  0.95189247  0.97110901    -0.71700
O894        O  0.20218248  0.96184652  0.55251344    -0.71900
O895        O  0.18667022  0.94931694  0.98217640    -0.71700
O896        O  0.26269773  0.96411256  0.54251671    -0.71700
O897        O  0.30343617  0.54036740  0.52276816    -0.71700
O898        O  0.22253164  0.51793739  0.96808583    -0.71700
O899        O  0.24252265  0.53619151  0.53771415    -0.71700
O900        O  0.28263100  0.51966291  0.95361127    -0.71800
V901        V  0.22557431  0.95848143  0.01112910     1.35200
V902        V  0.26251886  0.52815513  0.49615096     1.35200
C903        C  0.27841431  0.49017628  0.94939659     0.77600
C904        C  0.20807620  0.99127777  0.56002291     0.77600
C905        C  0.18565218  0.97382513  0.96666891     0.77500
C906        C  0.30407179  0.51761230  0.54216422     0.77500
C907        C  0.00107910  0.95695495  0.74080413    -0.02400
C908        C  0.49973626  0.54379715  0.75575147    -0.02400
C909        C  0.04395756  0.54481190  0.75431474    -0.02400
C910        C  0.04471587  0.99920101  0.75320743    -0.02400
C911        C  0.45564267  0.50028874  0.74772904    -0.02400
C912        C  0.45694406  0.95755935  0.74013895    -0.02400
C913        C  0.33238285  0.52684134  0.56851892     0.01500
C914        C  0.30564687  0.98545372  0.60911703     0.04300
C915        C  0.32987617  0.99678167  0.63735267    -0.11800
C916        C  0.37876656  0.52849133  0.62240689     0.23600
C917        C  0.38873964  0.53417453  0.58501509    -0.12300
C918        C  0.36600971  0.53444088  0.55861042     0.05000
C919        C  0.39983353  0.52270735  0.65116796     0.27400
C920        C  0.41311372  0.54339956  0.68136895    -0.13000
C921        C  0.42005128  0.53023754  0.71365623     0.05500
C922        C  0.43041300  0.50454519  0.71425059    -0.09000
C923        C  0.40878788  0.48072687  0.68628827     0.06300
C924        C  0.39898640  0.49149641  0.65320146    -0.13400
Br925      Br  0.42953247  0.53448772  0.56765031    -0.05400
Br926      Br  0.25945054  0.94586292  0.61815468     0.00200
Br927      Br  0.37638271  0.51937846  0.73720082     0.00600
Br928      Br  0.37364284  0.46107898  0.61350867    -0.03800
Br929      Br  0.38151801  0.54714309  0.50918702     0.00700
Br930      Br  0.31190422  0.97797953  0.68476276    -0.03100
Br931      Br  0.40524797  0.08616496  0.68605900    -0.03900
Br932      Br  0.35940976  0.45047641  0.69400615     0.00000
C933        C  0.42504792  0.49512211  0.78228839     0.01500
C934        C  0.42031353  0.52247944  0.79726908     0.04300
C935        C  0.39699817  0.51924973  0.82648599    -0.11800
C936        C  0.37499515  0.48821953  0.84414227     0.23600
C937        C  0.36707485  0.95378775  0.82398181    -0.12300
C938        C  0.38696286  0.96109583  0.79031158     0.05000
C939        C  0.34668092  0.48447000  0.87066442     0.27400
C940        C  0.34959541  0.48104523  0.90820678    -0.13000
C941        C  0.32352710  0.47674452  0.93249071     0.05500
C942        C  0.29835460  0.48423173  0.92140390    -0.09000
C943        C  0.28667441  0.97515919  0.88625000     0.06300
C944        C  0.31754635  0.48662963  0.85892135    -0.13400
Br945      Br  0.32461782  0.90988271  0.83542491    -0.05400
Br946      Br  0.44039483  0.56694830  0.78043253     0.00200
Br947      Br  0.32222469  0.45971337  0.98102592     0.00600
Br948      Br  0.30009157  0.97502447  0.81034594    -0.03800
Br949      Br  0.34741366  0.95041250  0.76117777     0.00700
Br950      Br  0.39327764  0.55712455  0.84492542    -0.03100
Br951      Br  0.39207954  0.49084649  0.92896802    -0.03900
Br952      Br  0.24735614  0.97816226  0.87069568     0.00000
C953        C  0.06331240  0.98712664  0.79068889     0.01500
C954        C  0.06628235  0.49917023  0.82805054     0.04300
C955        C  0.06738847  0.47984452  0.85911144    -0.11800
C956        C  0.08170264  0.95871669  0.85935253     0.23600
C957        C  0.09361872  0.95649376  0.82555416    -0.12300
C958        C  0.08616733  0.97049579  0.79269555     0.05000
C959        C  0.10390347  0.96106000  0.89239393     0.27400
C960        C  0.14470666  0.50172105  0.89458590    -0.13000
C961        C  0.16525554  0.50819952  0.92499602     0.05500
C962        C  0.15456251  0.96834645  0.94530249    -0.09000
C963        C  0.12676673  0.93528570  0.93606037     0.06300
C964        C  0.10131078  0.93180285  0.91076629    -0.13400
Br965      Br  0.12616668  0.93822635  0.82958022    -0.05400
Br966      Br  0.10745542  0.53625552  0.85077303     0.00200
Br967      Br  0.19531330  0.55590351  0.93649864     0.00600
Br968      Br  0.07082004  0.88663240  0.89429125    -0.03800
Br969      Br  0.12726331  0.97730204  0.76535413     0.00700
Br970      Br  0.05130051  0.48560085  0.90600457    -0.03100
Br971      Br  0.17352502  0.52622625  0.85284768    -0.03900
Br972      Br  0.12351773  0.89403371  0.95626294     0.00000
C973        C  0.08049756  0.01081795  0.72463355     0.01500
C974        C  0.07895443  0.00171880  0.68708870     0.04300
C975        C  0.10331755  0.99428973  0.67045041    -0.11800
C976        C  0.13801418  0.01037222  0.68153202     0.23600
C977        C  0.15070139  0.53928396  0.70965562    -0.12300
C978        C  0.12245082  0.53426522  0.73366576     0.05000
C979        C  0.16489006  0.01009609  0.65667536     0.27400
C980        C  0.16641284  0.98003441  0.65430364    -0.13000
C981        C  0.17847463  0.97281003  0.62245514     0.05500
C982        C  0.19251426  0.99722251  0.59310976    -0.09000
C983        C  0.20289735  0.54482376  0.59622424     0.06300
C984        C  0.18667016  0.54805699  0.62722355    -0.13400
Br985      Br  0.20025458  0.56963202  0.71953684    -0.05400
Br986      Br  0.09945404  0.03867980  0.65095092     0.00200
Br987      Br  0.17159693  0.92742227  0.61921899     0.00600
Br988      Br  0.18647373  0.58962377  0.63199606    -0.03800
Br989      Br  0.14473468  0.55463196  0.77860787     0.00700
Br990      Br  0.09244359  0.96644445  0.62823185    -0.03100
Br991      Br  0.15147051  0.94803112  0.69465747    -0.03900
Br992      Br  0.21808925  0.57987774  0.55818535     0.00000
C993        C  0.00871063  0.94165358  0.69975336     0.01500
C994        C  0.49495457  0.93954412  0.66328773     0.05800
C995        C  0.48703165  0.91287074  0.63757106    -0.11800
C996        C  0.00176859  0.89334019  0.63988122     0.23600
C997        C  0.02519526  0.90126623  0.66743389    -0.12300
C998        C  0.02933089  0.92503177  0.69499366     0.05000
C999        C  0.99761349  0.86744148  0.61187230     0.27400
C1000       C  0.48365571  0.83218455  0.62137955    -0.13000
C1001       C  0.48419287  0.80883058  0.59750852     0.05500
C1002       C  0.00017327  0.81995778  0.56441402    -0.09000
C1003       C  0.01756287  0.85529997  0.55507512     0.06300
C1004       C  0.01521415  0.87855991  0.57774702    -0.13400
Br1005     Br  0.05333370  0.87941146  0.66456450    -0.05400
Br1006     Br  0.52441877  0.97110677  0.62423770     0.00200
Br1007     Br  0.46464294  0.76141912  0.61308012     0.00600
Br1008     Br  0.03720611  0.92561442  0.56076781    -0.03800
Br1009     Br  0.06843371  0.93340576  0.71966328     0.00700
Br1010     Br  0.45697775  0.90389927  0.59662986    -0.03100
Br1011     Br  0.46358639  0.81439080  0.66852474    -0.03900
Br1012     Br  0.04599749  0.87246728  0.51162802     0.00000
C1013       C  0.99455399  0.92221226  0.77040471     0.01500
C1014       C  0.46636980  0.89876869  0.79559713     0.04300
C1015       C  0.47088226  0.88429135  0.82889034    -0.11800
C1016       C  0.99877980  0.87901637  0.83192276     0.23600
C1017       C  0.02255710  0.89204966  0.80251569    -0.12300
C1018       C  0.01443435  0.90524226  0.77097195     0.05000
C1019       C  0.99672644  0.85262178  0.86051677     0.27400
C1020       C  0.99184473  0.85596847  0.89798783    -0.13000
C1021       C  0.98301916  0.82905259  0.92327816     0.05500
C1022       C  0.98812331  0.80242351  0.91450593    -0.09000
C1023       C  0.49254452  0.79800843  0.87830425     0.06300
C1024       C  0.49256326  0.82060554  0.85154842    -0.13400
Br1025     Br  0.05606003  0.87754073  0.79761245    -0.05400
Br1026     Br  0.42563674  0.85920224  0.77876744     0.00200
Br1027     Br  0.96333553  0.82830424  0.96988043     0.00600
Br1028     Br  0.47866910  0.80206601  0.80460471    -0.03800
Br1029     Br  0.99569014  0.86316175  0.74426246     0.00700
Br1030     Br  0.43199180  0.85478645  0.86149245    -0.03100
Br1031     Br  0.99875942  0.89732955  0.91705048    -0.03900
Br1032     Br  0.50099403  0.76228165  0.86535833     0.00000
C1033       C  0.48755041  0.67614653  0.92920738     0.01500
C1034       C  0.46478118  0.66528938  0.89974307     0.04300
C1035       C  0.46743576  0.64537777  0.87271670    -0.11800
C1036       C  0.48946346  0.63184355  0.87712397     0.23600
C1037       C  0.01094334  0.64200129  0.90769646    -0.12300
C1038       C  0.01173352  0.66506457  0.93278929     0.05000
C1039       C  0.49015183  0.60780103  0.84962596     0.27400
C1040       C  0.47940285  0.57348557  0.85842819    -0.13000
C1041       C  0.48194721  0.55088030  0.83297417     0.05500
C1042       C  0.50161501  0.56340888  0.79736736    -0.09000
C1043       C  0.02328799  0.60240171  0.80102370     0.06300
C1044       C  0.01238038  0.62339758  0.81840995    -0.13400
Br1045     Br  0.03772545  0.62097896  0.91899533    -0.05400
Br1046     Br  0.42956255  0.67739232  0.89609043     0.00200
Br1047     Br  0.45672981  0.50515920  0.85519127     0.00600
Br1048     Br  0.03591677  0.67397687  0.80997987    -0.03800
Br1049     Br  0.04178187  0.67691597  0.97391644     0.00700
Br1050     Br  0.44401943  0.64103165  0.82797736    -0.03100
Br1051     Br  0.46325364  0.55974912  0.90781897    -0.03900
Br1052     Br  0.06051538  0.62590516  0.83531231     0.00000
C1053       C  0.50117711  0.57683195  0.72394216     0.01500
C1054       C  0.01541995  0.61524805  0.73305504     0.04300
C1055       C  0.03134794  0.64468982  0.70756723    -0.11800
C1056       C  0.51800919  0.64017500  0.67199753     0.23600
C1057       C  0.49696671  0.60613684  0.66226898    -0.12300
C1058       C  0.49321546  0.57711586  0.68452944     0.05000
C1059       C  0.51959851  0.66995506  0.64894911     0.27400
C1060       C  0.48941091  0.67231617  0.64469117    -0.13000
C1061       C  0.48223418  0.68316536  0.61158817     0.05500
C1062       C  0.50865769  0.70029905  0.58463787    -0.09000
C1063       C  0.04148952  0.70594332  0.59371634     0.06300
C1064       C  0.04626195  0.69076118  0.62522981    -0.13400
Br1065     Br  0.47431460  0.60205336  0.61597023    -0.05400
Br1066     Br  0.98654005  0.63476900  0.74419322     0.00200
Br1067     Br  0.43481430  0.67195791  0.60434014     0.00600
Br1068     Br  0.09268462  0.70338624  0.63603468    -0.03800
Br1069     Br  0.47928605  0.54388890  0.65049351     0.00700
Br1070     Br  0.06331173  0.69193241  0.72220681    -0.03100
Br1071     Br  0.46310530  0.67196134  0.68553656    -0.03900
Br1072     Br  0.08133129  0.73126331  0.56092472     0.00000
C1073       C  0.43417837  0.92917092  0.70536931     0.01500
C1074       C  0.41924806  0.89193050  0.71088981     0.04300
C1075       C  0.38857178  0.86501907  0.69405842    -0.11800
C1076       C  0.37672722  0.87160074  0.66212358     0.23600
C1077       C  0.39674825  0.90512966  0.64796221    -0.12300
C1078       C  0.42496078  0.93288908  0.66793067     0.05000
C1079       C  0.34827387  0.84295439  0.63974139     0.27400
C1080       C  0.35622267  0.82240774  0.61872004    -0.13000
C1081       C  0.33421012  0.80224295  0.59089304     0.05500
C1082       C  0.30282306  0.80151749  0.58327422    -0.09000
C1083       C  0.29378943  0.82075324  0.60537692     0.06300
C1084       C  0.31577904  0.84039106  0.63381771    -0.13400
Br1085     Br  0.38541496  0.90979841  0.59813654    -0.05400
Br1086     Br  0.44243160  0.86943666  0.69788036     0.00200
Br1087     Br  0.35018445  0.77844918  0.56130552     0.00600
Br1088     Br  0.30056295  0.86312782  0.66511310    -0.03800
Br1089     Br  0.45316747  0.96833413  0.63410396     0.00700
Br1090     Br  0.35999802  0.81968312  0.71711178    -0.03100
Br1091     Br  0.39811971  0.82204296  0.62669724    -0.03900
Br1092     Br  0.25155945  0.82113667  0.59685472     0.00000
C1093       C  0.32506982  0.81501348  0.92874162     0.01500
C1094       C  0.33076777  0.80233064  0.89714371     0.04300
C1095       C  0.35135088  0.82495736  0.86830962    -0.11800
C1096       C  0.36646622  0.86174019  0.87027570     0.23600
C1097       C  0.35996377  0.87322525  0.90299448    -0.12300
C1098       C  0.34114482  0.85048783  0.93221192     0.05000
C1099       C  0.38743791  0.88752968  0.83854909     0.27400
C1100       C  0.42143009  0.91757667  0.84160646    -0.13000
C1101       C  0.44084880  0.93884924  0.81055782     0.05500
C1102       C  0.42962963  0.93257325  0.77443428    -0.09000
C1103       C  0.39222705  0.90442639  0.77386137     0.06300
C1104       C  0.37285609  0.88223539  0.80429542    -0.13400
Br1105     Br  0.37143318  0.91907031  0.90789306    -0.05400
Br1106     Br  0.30872963  0.75304778  0.89301217     0.00200
Br1107     Br  0.48788408  0.97106662  0.81589581     0.00600
Br1108     Br  0.32332092  0.84516530  0.80013252    -0.03800
Br1109     Br  0.33770325  0.86775936  0.97815977     0.00700
Br1110     Br  0.35698124  0.80237248  0.82744076    -0.03100
Br1111     Br  0.44518436  0.92807393  0.88749473    -0.03900
Br1112     Br  0.35955145  0.89513524  0.73684763     0.00000
C1113       C  0.20164906  0.69421413  0.90669085     0.01500
C1114       C  0.20457532  0.66557130  0.89760948     0.04300
C1115       C  0.18635551  0.64544672  0.86819223    -0.11800
C1116       C  0.16342890  0.65182452  0.84880880     0.23600
C1117       C  0.16469824  0.68294172  0.85399071    -0.12300
C1118       C  0.18361786  0.70408134  0.88271111     0.05000
C1119       C  0.13563680  0.62412939  0.82628948     0.27400
C1120       C  0.14086043  0.62182618  0.79025569    -0.13000
C1121       C  0.11382191  0.59546947  0.76911349     0.05500
C1122       C  0.07713015  0.57079492  0.78217505    -0.09000
C1123       C  0.07593377  0.57309828  0.82133639     0.06300
C1124       C  0.10479048  0.59844025  0.84232881    -0.13400
Br1125     Br  0.14355337  0.69844626  0.81963163    -0.05400
Br1126     Br  0.23226099  0.65168528  0.92476430     0.00200
Br1127     Br  0.13390084  0.59962900  0.72185345     0.00600
Br1128     Br  0.10271790  0.59972944  0.89524578    -0.03800
Br1129     Br  0.18596658  0.74737197  0.88700565     0.00700
Br1130     Br  0.19436573  0.61027349  0.85269835    -0.03100
Br1131     Br  0.18747762  0.65572719  0.77126815    -0.03900
Br1132     Br  0.03950551  0.54390451  0.85413048     0.00000
C1133       C  0.05964412  0.57263213  0.71835609     0.01500
C1134       C  0.07785986  0.61104152  0.71711632     0.04300
C1135       C  0.09714294  0.63175553  0.68578788    -0.11800
C1136       C  0.09447855  0.61680646  0.65257475     0.23600
C1137       C  0.06652809  0.58197641  0.65074354    -0.12300
C1138       C  0.05174945  0.56093537  0.68345956     0.05000
C1139       C  0.12066762  0.63770777  0.62119665     0.27400
C1140       C  0.10935530  0.64564004  0.58845688    -0.13000
C1141       C  0.13349208  0.66536191  0.55998006     0.05500
C1142       C  0.16953912  0.67864139  0.56356938    -0.09000
C1143       C  0.18146303  0.67181949  0.59547665     0.06300
C1144       C  0.15800771  0.65267555  0.62409743    -0.13400
Br1145     Br  0.05208593  0.56064970  0.60427167    -0.05400
Br1146     Br  0.08832305  0.64096909  0.75660278     0.00200
Br1147     Br  0.11721052  0.67353323  0.51515264     0.00600
Br1148     Br  0.18242174  0.65426485  0.66688024    -0.03800
Br1149     Br  0.01861240  0.51505887  0.68391943     0.00700
Br1150     Br  0.13208715  0.68075005  0.68990668    -0.03100
Br1151     Br  0.06169682  0.63410537  0.58314061    -0.03900
Br1152     Br  0.23181042  0.69221785  0.60120467     0.00000
O1153       O  0.80084860  0.26435958  0.46849163    -0.71700
O1154       O  0.72439953  0.19954897  0.02874658    -0.71900
O1155       O  0.73918407  0.20711431  0.45772574    -0.71700
O1156       O  0.78646781  0.25735794  0.04123470    -0.71700
O1157       O  0.76568587  0.29053402  0.03402871    -0.71700
O1158       O  0.71182177  0.23420650  0.45428911    -0.71700
O1159       O  0.70190319  0.23166111  0.02768171    -0.71700
O1160       O  0.77460502  0.29258035  0.45981848    -0.71800
V1161       V  0.76217372  0.23254427  0.49880070     1.35200
V1162       V  0.73867219  0.26226316  0.99491638     1.35200
C1163       C  0.80015607  0.28900372  0.45288225     0.77600
C1164       C  0.70023277  0.20433531  0.03862367     0.77600
C1165       C  0.71699274  0.21157308  0.44184354     0.77500
C1166       C  0.78567984  0.28331093  0.05108082     0.77500
O1167       O  0.52976647  0.24019159  0.03500331    -0.71700
O1168       O  0.52430299  0.28861546  0.45276583    -0.71900
O1169       O  0.52979694  0.29877854  0.02466730    -0.71700
O1170       O  0.52381620  0.22979179  0.46331682    -0.71700
O1171       O  0.97057407  0.20363138  0.47192120    -0.71700
O1172       O  0.97971020  0.27383802  0.03206886    -0.71700
O1173       O  0.97042018  0.26258443  0.46144853    -0.71700
O1174       O  0.97954143  0.21486057  0.04270529    -0.71800
V1175       V  0.52529584  0.26337663  0.99421291     1.35200
V1176       V  0.97518002  0.23861143  0.50224411     1.35200
C1177       C  0.00901501  0.22115094  0.05364702     0.77600
C1178       C  0.49513385  0.28294971  0.44220669     0.77600
C1179       C  0.50252265  0.29634224  0.03801858     0.77500
C1180       C  0.99742768  0.20581920  0.45817860     0.77500
O1181       O  0.75994626  0.46442596  0.47188837    -0.71700
O1182       O  0.71454115  0.47821911  0.05036382    -0.71900
O1183       O  0.69845813  0.46156718  0.48114902    -0.71700
O1184       O  0.77677857  0.48328134  0.04234948    -0.71700
O1185       O  0.79114580  0.02107451  0.02910985    -0.71700
O1186       O  0.71360349  0.00416673  0.46914837    -0.71700
O1187       O  0.73189545  0.01948202  0.03944182    -0.71700
O1188       O  0.77485988  0.00701797  0.45814412    -0.71800
V1189       V  0.73788716  0.47268720  0.51063012     1.35200
V1190       V  0.75330221  0.01224407  0.99916130     1.35200
C1191       C  0.77068338  0.97797514  0.45165397     0.77600
C1192       C  0.72150018  0.50765490  0.05895174     0.77600
C1193       C  0.69671971  0.48539882  0.46479347     0.77500
C1194       C  0.78989836  0.99700923  0.04801731     0.77500
C1195       C  0.50458761  0.45900467  0.23991696    -0.02400
C1196       C  0.99770132  0.04230712  0.25810152    -0.02400
C1197       C  0.53999233  0.04102638  0.25414353    -0.02400
C1198       C  0.54800709  0.50186347  0.25194478    -0.02400
C1199       C  0.95332615  0.99944335  0.24928451    -0.02400
C1200       C  0.96201679  0.46014112  0.24005912    -0.02400
C1201       C  0.81652445  0.00483921  0.07673826     0.01500
C1202       C  0.82276639  0.51995888  0.10590040     0.04300
C1203       C  0.84447767  0.51887527  0.13211590    -0.11800
C1204       C  0.86496371  0.02467635  0.13524222     0.23600
C1205       C  0.87298829  0.04552689  0.10355913    -0.12300
C1206       C  0.85000076  0.03515957  0.07418349     0.05000
C1207       C  0.89355430  0.02550299  0.15877176     0.27400
C1208       C  0.90711988  0.04489261  0.18938018    -0.13000
C1209       C  0.91703550  0.03127594  0.21937773     0.05500
C1210       C  0.92828074  0.00587349  0.21708550    -0.09000
C1211       C  0.91230334  0.98691492  0.18440699     0.06300
C1212       C  0.90098549  0.99982566  0.15456603    -0.13400
Br1213     Br  0.91143379  0.09151835  0.10214425    -0.05400
Br1214     Br  0.78127686  0.51941883  0.12043626     0.00200
Br1215     Br  0.87315638  0.02034413  0.24320674     0.00600
Br1216     Br  0.89532663  0.98484033  0.10521143    -0.03800
Br1217     Br  0.86658042  0.06185830  0.02934704     0.00700
Br1218     Br  0.82110606  0.49769302  0.17694755    -0.03100
Br1219     Br  0.90959855  0.58294582  0.18279383    -0.03900
Br1220     Br  0.86753130  0.94675911  0.18367641     0.00000
C1221       C  0.92263051  0.99311829  0.28399447     0.01500
C1222       C  0.91855218  0.01976552  0.30198629     0.04300
C1223       C  0.89565340  0.01473231  0.33237841    -0.11800
C1224       C  0.87135860  0.98242802  0.34593128     0.23600
C1225       C  0.87999760  0.46173060  0.33350512    -0.12300
C1226       C  0.89666577  0.46436104  0.29876474     0.05000
C1227       C  0.84329599  0.97792772  0.37339252     0.27400
C1228       C  0.84908608  0.97991524  0.41103590    -0.13000
C1229       C  0.82296998  0.97495997  0.43590268     0.05500
C1230       C  0.79323716  0.97486093  0.42424512    -0.09000
C1231       C  0.79695897  0.48777334  0.38526462     0.06300
C1232       C  0.81187140  0.97555969  0.36179672    -0.13400
Br1233     Br  0.84520057  0.41865847  0.35725998    -0.05400
Br1234     Br  0.93761793  0.06518396  0.28816130     0.00200
Br1235     Br  0.82870142  0.96957689  0.48668559     0.00600
Br1236     Br  0.81185104  0.48890807  0.30965571    -0.03800
Br1237     Br  0.85132374  0.44665382  0.27790274     0.00700
Br1238     Br  0.89611453  0.05173961  0.35846081    -0.03100
Br1239     Br  0.89445556  0.99723915  0.42999294    -0.03900
Br1240     Br  0.75857427  0.49212374  0.36923130     0.00000
C1241       C  0.56774027  0.49092349  0.28934092     0.01500
C1242       C  0.56143287  0.99411312  0.32791908     0.04300
C1243       C  0.56128646  0.97389894  0.35875241    -0.11800
C1244       C  0.58929234  0.46464441  0.35733638     0.23600
C1245       C  0.59857936  0.46039884  0.32306100    -0.12300
C1246       C  0.59041632  0.47415179  0.29058484     0.05000
C1247       C  0.61387370  0.46879018  0.38882726     0.27400
C1248       C  0.63709050  0.99362242  0.39748585    -0.13000
C1249       C  0.65678979  0.99804480  0.42817977     0.05500
C1250       C  0.66633506  0.47894448  0.44121911    -0.09000
C1251       C  0.63808267  0.44540935  0.43385010     0.06300
C1252       C  0.61160761  0.44064172  0.40918012    -0.13400
Br1253     Br  0.62953287  0.44041481  0.32571349    -0.05400
Br1254     Br  0.60271451  0.03068583  0.35072316     0.00200
Br1255     Br  0.68674507  0.04471858  0.44325895     0.00600
Br1256     Br  0.57875998  0.39453170  0.39668891    -0.03800
Br1257     Br  0.63216520  0.48235205  0.26303628     0.00700
Br1258     Br  0.54464587  0.97953143  0.40520573    -0.03100
Br1259     Br  0.66741556  0.02081136  0.35759244    -0.03900
Br1260     Br  0.63609395  0.40508192  0.45491870     0.00000
C1261       C  0.58356964  0.51389360  0.22321959     0.01500
C1262       C  0.58171796  0.50416830  0.18601374     0.04300
C1263       C  0.60703579  0.49818460  0.16921161    -0.11800
C1264       C  0.64218283  0.51676286  0.17880178     0.23600
C1265       C  0.64596517  0.03261891  0.20973913    -0.12300
C1266       C  0.61811704  0.02961756  0.23318003     0.05000
C1267       C  0.66968280  0.51874545  0.15311422     0.27400
C1268       C  0.67473007  0.49077696  0.15115235    -0.13000
C1269       C  0.69125175  0.48687897  0.12075389     0.05500
C1270       C  0.70493839  0.51216198  0.09207640    -0.09000
C1271       C  0.69367299  0.03040866  0.09566051     0.06300
C1272       C  0.68073819  0.03662850  0.12736029    -0.13400
Br1273     Br  0.69542777  0.05998084  0.22095547    -0.05400
Br1274     Br  0.59921667  0.54014049  0.14916103     0.00200
Br1275     Br  0.69411045  0.44592847  0.11981915     0.00600
Br1276     Br  0.68554337  0.08054692  0.13163854    -0.03800
Br1277     Br  0.63986042  0.05031505  0.27837639     0.00700
Br1278     Br  0.59622950  0.46837674  0.12910654    -0.03100
Br1279     Br  0.65765388  0.45659259  0.18969936    -0.03900
Br1280     Br  0.70567832  0.06251847  0.05509607     0.00000
C1281       C  0.51222728  0.44374616  0.19882885     0.01500
C1282       C  0.00099489  0.44377117  0.16240847     0.05800
C1283       C  0.99431297  0.41751641  0.13648444    -0.11800
C1284       C  0.50620944  0.39533890  0.13946920     0.23600
C1285       C  0.52865035  0.40278348  0.16777090    -0.12300
C1286       C  0.53296817  0.42720285  0.19452598     0.05000
C1287       C  0.50275262  0.36970878  0.11145815     0.27400
C1288       C  0.99180896  0.33744816  0.12089373    -0.13000
C1289       C  0.99329616  0.31442084  0.09746495     0.05500
C1290       C  0.50389189  0.32197002  0.06333991    -0.09000
C1291       C  0.52331259  0.35753286  0.05508496     0.06300
C1292       C  0.52145055  0.38097971  0.07788519    -0.13400
Br1293     Br  0.55486054  0.37882138  0.16761516    -0.05400
Br1294     Br  0.02988108  0.47663218  0.12415359     0.00200
Br1295     Br  0.97435748  0.26728577  0.11336042     0.00600
Br1296     Br  0.54496149  0.42828324  0.06143397    -0.03800
Br1297     Br  0.57291131  0.43681599  0.21843039     0.00700
Br1298     Br  0.96749164  0.40957044  0.09324114    -0.03100
Br1299     Br  0.97007480  0.31912925  0.16736217    -0.03900
Br1300     Br  0.55304379  0.37454598  0.01252988     0.00000
C1301       C  0.49862794  0.42444836  0.26953826     0.01500
C1302       C  0.97314923  0.40193019  0.29507854     0.04300
C1303       C  0.97798126  0.38637930  0.32749107    -0.11800
C1304       C  0.50385817  0.38094856  0.32994388     0.23600
C1305       C  0.52745706  0.39463412  0.30046913    -0.12300
C1306       C  0.51852492  0.40755359  0.26933472     0.05000
C1307       C  0.50297277  0.35510517  0.35835305     0.27400
C1308       C  0.49911209  0.35918873  0.39569157    -0.13000
C1309       C  0.49065826  0.33269830  0.42145773     0.05500
C1310       C  0.49391598  0.30488250  0.41268641    -0.09000
C1311       C  0.00305461  0.30311609  0.37810842     0.06300
C1312       C  0.00310699  0.32540850  0.35069963    -0.13400
Br1313     Br  0.56026629  0.37946370  0.29428991    -0.05400
Br1314     Br  0.93191314  0.36342445  0.27749539     0.00200
Br1315     Br  0.47293436  0.33375365  0.46846423     0.00600
Br1316     Br  0.99049381  0.30681091  0.30358867    -0.03800
Br1317     Br  0.49846437  0.36515258  0.24299723     0.00700
Br1318     Br  0.93916661  0.35449782  0.35939474    -0.03100
Br1319     Br  0.50652260  0.40115135  0.41343617    -0.03900
Br1320     Br  0.01017821  0.26635616  0.36606691     0.00000
C1321       C  0.99427025  0.17866526  0.43383888     0.01500
C1322       C  0.96983483  0.16636039  0.40585114     0.04300
C1323       C  0.96929589  0.14326598  0.38070795    -0.11800
C1324       C  0.99111949  0.12937740  0.38461671     0.23600
C1325       C  0.51314677  0.14038299  0.41144094    -0.12300
C1326       C  0.51387923  0.16399699  0.43589864     0.05000
C1327       C  0.99068929  0.10501718  0.35649906     0.27400
C1328       C  0.98172417  0.07095334  0.36449093    -0.13000
C1329       C  0.98110983  0.04839853  0.33669181     0.05500
C1330       C  0.99946977  0.06128091  0.30023249    -0.09000
C1331       C  0.51740423  0.09773478  0.30154676     0.06300
C1332       C  0.50580872  0.11692130  0.32137120    -0.13400
Br1333     Br  0.54818947  0.12851915  0.41778485    -0.05400
Br1334     Br  0.93720160  0.18175418  0.40093924     0.00200
Br1335     Br  0.95379487  0.00229263  0.35797836     0.00600
Br1336     Br  0.52483148  0.16620579  0.31127984    -0.03800
Br1337     Br  0.54478733  0.17782314  0.47654595     0.00700
Br1338     Br  0.94163856  0.13509564  0.33834332    -0.03100
Br1339     Br  0.97489106  0.05759121  0.41535266    -0.03900
Br1340     Br  0.55753250  0.12260579  0.33155739     0.00000
C1341       C  0.99974905  0.07565013  0.22658367     0.01500
C1342       C  0.50878563  0.11012247  0.23388753     0.04300
C1343       C  0.52451111  0.14051395  0.20966895    -0.11800
C1344       C  0.01771833  0.13956081  0.17501096     0.23600
C1345       C  0.00002104  0.10598662  0.16355121    -0.12300
C1346       C  0.99404722  0.07660328  0.18672995     0.05000
C1347       C  0.02008447  0.16927190  0.15094198     0.27400
C1348       C  0.99040138  0.17222785  0.14559292    -0.13000
C1349       C  0.98546156  0.18601762  0.11308490     0.05500
C1350       C  0.01297746  0.20355271  0.08718185    -0.09000
C1351       C  0.54085621  0.20545376  0.09581027     0.06300
C1352       C  0.54402965  0.18722727  0.12568121    -0.13400
Br1353     Br  0.98734069  0.10354583  0.11253914    -0.05400
Br1354     Br  0.47611833  0.12481696  0.24266275     0.00200
Br1355     Br  0.93985836  0.17989271  0.10570571     0.00600
Br1356     Br  0.58842664  0.19349564  0.13456068    -0.03800
Br1357     Br  0.97862257  0.04282006  0.15387723     0.00700
Br1358     Br  0.55393474  0.18750814  0.22556279    -0.03100
Br1359     Br  0.96145931  0.16818113  0.18547932    -0.03900
Br1360     Br  0.58297081  0.23599105  0.06767056     0.00000
C1361       C  0.93908773  0.43199873  0.20462142     0.01500
C1362       C  0.92428464  0.39485040  0.21002887     0.04300
C1363       C  0.89379440  0.36785890  0.19289534    -0.11800
C1364       C  0.88301275  0.37402858  0.16005659     0.23600
C1365       C  0.90391928  0.40714024  0.14527914    -0.12300
C1366       C  0.93071392  0.43538071  0.16622483     0.05000
C1367       C  0.85483698  0.34527265  0.13756323     0.27400
C1368       C  0.86394016  0.32739937  0.11361579    -0.13000
C1369       C  0.84261379  0.30974612  0.08432154     0.05500
C1370       C  0.80894197  0.30488584  0.08099055    -0.09000
C1371       C  0.79820259  0.32011550  0.10670731     0.06300
C1372       C  0.82126739  0.34080187  0.13402434    -0.13400
Br1373     Br  0.89693823  0.40932155  0.09295072    -0.05400
Br1374     Br  0.94783261  0.37293965  0.19586216     0.00200
Br1375     Br  0.86239039  0.29678027  0.04596096     0.00600
Br1376     Br  0.80643603  0.36272412  0.16684723    -0.03800
Br1377     Br  0.95661677  0.47206654  0.13264200     0.00700
Br1378     Br  0.86519226  0.32250417  0.21576690    -0.03100
Br1379     Br  0.90590612  0.32684173  0.12004416    -0.03900
Br1380     Br  0.75184728  0.31275623  0.10491438     0.00000
C1381       C  0.82846484  0.31355410  0.42721354     0.01500
C1382       C  0.83411612  0.30284426  0.39426926     0.04300
C1383       C  0.85728614  0.32714032  0.36765727    -0.11800
C1384       C  0.87566823  0.36387874  0.37316651     0.23600
C1385       C  0.87136428  0.37308216  0.40874185    -0.12300
C1386       C  0.84847605  0.34830451  0.43502582     0.05000
C1387       C  0.89607950  0.39081221  0.34128974     0.27400
C1388       C  0.93063930  0.42064962  0.34232216    -0.13000
C1389       C  0.94808401  0.44217765  0.31069761     0.05500
C1390       C  0.93568374  0.43523008  0.27502646    -0.09000
C1391       C  0.89822341  0.40723258  0.27609290     0.06300
C1392       C  0.87961089  0.38655683  0.30792449    -0.13400
Br1393     Br  0.89318969  0.41871268  0.42455539    -0.05400
Br1394     Br  0.80868865  0.25406587  0.38555069     0.00200
Br1395     Br  0.99425994  0.47700388  0.31422382     0.00600
Br1396     Br  0.82845121  0.35390419  0.30754467    -0.03800
Br1397     Br  0.84453575  0.36127107  0.48345896     0.00700
Br1398     Br  0.86174756  0.30703118  0.32414521    -0.03100
Br1399     Br  0.95898792  0.43128346  0.38456783    -0.03900
Br1400     Br  0.86500637  0.39574149  0.23932240     0.00000
C1401       C  0.69770612  0.19069573  0.40968956     0.01500
C1402       C  0.70060926  0.16237831  0.39907179     0.04300
C1403       C  0.68101871  0.14201943  0.37019096    -0.11800
C1404       C  0.65712672  0.14806927  0.35225061     0.23600
C1405       C  0.65738777  0.17842211  0.35949741    -0.12300
C1406       C  0.67675535  0.19916978  0.38834047     0.05000
C1407       C  0.62962718  0.12061618  0.32893553     0.27400
C1408       C  0.63440509  0.12036067  0.29235809    -0.13000
C1409       C  0.60891460  0.09293023  0.27101973     0.05500
C1410       C  0.57246527  0.06692876  0.28316963    -0.09000
C1411       C  0.57114329  0.06791356  0.32269266     0.06300
C1412       C  0.59962717  0.09303259  0.34444694    -0.13400
Br1413     Br  0.63453864  0.19415956  0.32758745    -0.05400
Br1414     Br  0.73005195  0.14910518  0.42358320     0.00200
Br1415     Br  0.63087256  0.09676433  0.22523175     0.00600
Br1416     Br  0.59794107  0.09206007  0.39748746    -0.03800
Br1417     Br  0.67385908  0.23931819  0.39703802     0.00700
Br1418     Br  0.68800072  0.10642725  0.35361934    -0.03100
Br1419     Br  0.67730400  0.15971963  0.27211693    -0.03900
Br1420     Br  0.53523906  0.03763756  0.35523104     0.00000
C1421       C  0.55649965  0.06892582  0.21734866     0.01500
C1422       C  0.57471848  0.10733193  0.21503290     0.04300
C1423       C  0.59534215  0.12783239  0.18381735    -0.11800
C1424       C  0.59265325  0.11312272  0.15019861     0.23600
C1425       C  0.56441570  0.07819677  0.14907373    -0.12300
C1426       C  0.54954078  0.05728000  0.18224218     0.05000
C1427       C  0.61990902  0.13429297  0.11869205     0.27400
C1428       C  0.61082935  0.14279867  0.08447478    -0.13000
C1429       C  0.63665439  0.16413733  0.05775923     0.05500
C1430       C  0.67239830  0.17973491  0.06473904    -0.09000
C1431       C  0.68234533  0.17270206  0.09767505     0.06300
C1432       C  0.65708999  0.14976063  0.12342353    -0.13400
Br1433     Br  0.54934961  0.05635236  0.10314491    -0.05400
Br1434     Br  0.58295623  0.13759204  0.25330167     0.00200
Br1435     Br  0.62354201  0.17196194  0.01050930     0.00600
Br1436     Br  0.67822460  0.14327392  0.16443863    -0.03800
Br1437     Br  0.51663039  0.01145737  0.18316260     0.00700
Br1438     Br  0.63195453  0.17626448  0.18901187    -0.03100
Br1439     Br  0.56435161  0.12988932  0.07272222    -0.03900
Br1440     Br  0.73208283  0.19742402  0.10829006     0.00000
O1441       O  0.80096350  0.26621932  0.96969328    -0.71700
O1442       O  0.72414889  0.19928667  0.52861784    -0.71900
O1443       O  0.73972675  0.20887019  0.95808894    -0.71700
O1444       O  0.78646327  0.25706474  0.54018189    -0.71700
O1445       O  0.76574143  0.29018994  0.53212186    -0.71700
O1446       O  0.71126049  0.23493980  0.95594128    -0.71700
O1447       O  0.70184492  0.23152359  0.52619181    -0.71700
O1448       O  0.77397118  0.29378317  0.96153014    -0.71800
V1449       V  0.76240723  0.23359327  0.99949640     1.35200
V1450       V  0.73892184  0.26159019  0.49324819     1.35200
C1451       C  0.79981824  0.29074908  0.95443467     0.77600
C1452       C  0.70013554  0.20442628  0.53814699     0.77600
C1453       C  0.71658457  0.21248037  0.94321983     0.77500
C1454       C  0.78565830  0.28315623  0.54953991     0.77500
O1455       O  0.53125714  0.24133896  0.53488299    -0.71700
O1456       O  0.52358751  0.28811760  0.95321464    -0.71900
O1457       O  0.53055431  0.29957116  0.52415939    -0.71700
O1458       O  0.52249847  0.22891881  0.96366901    -0.71700
O1459       O  0.97050009  0.20389338  0.97144726    -0.71700
O1460       O  0.97683607  0.27209919  0.53274989    -0.71700
O1461       O  0.97199501  0.26357296  0.96086946    -0.71700
O1462       O  0.97856200  0.21397971  0.54342729    -0.71800
V1463       V  0.52637468  0.26418384  0.49388211     1.35200
V1464       V  0.97653091  0.23958190  0.00160053     1.35200
C1465       C  0.00827436  0.22120636  0.55472225     0.77600
C1466       C  0.49450593  0.28242365  0.94233069     0.77600
C1467       C  0.50319998  0.29671568  0.53784438     0.77500
C1468       C  0.99687144  0.20537762  0.95731871     0.77500
O1469       O  0.76137673  0.46546599  0.97305215    -0.71700
O1470       O  0.71460652  0.47804780  0.55018341    -0.71900
O1471       O  0.69991896  0.46235974  0.98084853    -0.71700
O1472       O  0.77643401  0.48274800  0.54093074    -0.71700
O1473       O  0.78928882  0.02150439  0.52855358    -0.71700
O1474       O  0.71592726  0.00588928  0.96967055    -0.71700
O1475       O  0.72911262  0.01793296  0.53880250    -0.71700
O1476       O  0.77639357  0.00704220  0.95858187    -0.71800
V1477       V  0.73867216  0.47328257  0.01134351     1.35200
V1478       V  0.75118791  0.01150185  0.49864126     1.35200
C1479       C  0.77187473  0.97781174  0.95235138     0.77600
C1480       C  0.72100440  0.50741642  0.55825202     0.77600
C1481       C  0.69798527  0.48643401  0.96533719     0.77500
C1482       C  0.78921063  0.99779150  0.54692740     0.77500
C1483       C  0.50471395  0.45875058  0.74012251    -0.02400
C1484       C  0.99764729  0.04258407  0.75717141    -0.02400
C1485       C  0.54075253  0.04143801  0.75465235    -0.02400
C1486       C  0.54800715  0.50163202  0.75223579    -0.02400
C1487       C  0.95312304  0.00013452  0.74778943    -0.02400
C1488       C  0.96071294  0.45985347  0.74005080    -0.02400
C1489       C  0.81631896  0.00642343  0.57517698     0.01500
C1490       C  0.82154349  0.51844317  0.60516740     0.04300
C1491       C  0.84336573  0.51742447  0.63126023    -0.11800
C1492       C  0.86647911  0.02675856  0.63210027     0.23600
C1493       C  0.87418505  0.04658273  0.59955743    -0.12300
C1494       C  0.85010398  0.03604599  0.57110773     0.05000
C1495       C  0.89508838  0.02743942  0.65567627     0.27400
C1496       C  0.90947846  0.04743800  0.68577509    -0.13000
C1497       C  0.91936346  0.03424539  0.71636387     0.05500
C1498       C  0.92882347  0.00733233  0.71505452    -0.09000
C1499       C  0.91283689  0.98835877  0.68226278     0.06300
C1500       C  0.90186572  0.00129588  0.65207581    -0.13400
Br1501     Br  0.91414170  0.09158663  0.59520392    -0.05400
Br1502     Br  0.77914646  0.51580103  0.62007306     0.00200
Br1503     Br  0.87626356  0.02668123  0.73927538     0.00600
Br1504     Br  0.89764764  0.98717851  0.60239887    -0.03800
Br1505     Br  0.86485361  0.06206552  0.52571781     0.00700
Br1506     Br  0.81965029  0.49311132  0.67495320    -0.03100
Br1507     Br  0.90620321  0.58150603  0.68355104    -0.03900
Br1508     Br  0.86718326  0.94908089  0.67990675     0.00000
C1509       C  0.92169824  0.99350889  0.78165427     0.01500
C1510       C  0.91717101  0.01964200  0.80012002     0.04300
C1511       C  0.89319321  0.01363843  0.82984797    -0.11800
C1512       C  0.86904574  0.98087381  0.84272721     0.23600
C1513       C  0.87960518  0.46241645  0.83367992    -0.12300
C1514       C  0.89608058  0.46449747  0.79902688     0.05000
C1515       C  0.84146005  0.97561311  0.87139831     0.27400
C1516       C  0.84940949  0.98005604  0.90864049    -0.13000
C1517       C  0.82471481  0.97636790  0.93474047     0.05500
C1518       C  0.79361098  0.97408745  0.92439798    -0.09000
C1519       C  0.79656978  0.48834942  0.88572741     0.06300
C1520       C  0.80889579  0.97163989  0.86135450    -0.13400
Br1521     Br  0.84587769  0.41980660  0.85879750    -0.05400
Br1522     Br  0.93768362  0.06555141  0.78826539     0.00200
Br1523     Br  0.83423158  0.97584466  0.98538164     0.00600
Br1524     Br  0.80943376  0.48699893  0.80991338    -0.03800
Br1525     Br  0.85057488  0.44521272  0.77814891     0.00700
Br1526     Br  0.89113962  0.04982597  0.85495866    -0.03100
Br1527     Br  0.89571634  0.99814936  0.92514439    -0.03900
Br1528     Br  0.75770839  0.49220694  0.87039007     0.00000
C1529       C  0.56770504  0.49071403  0.78973279     0.01500
C1530       C  0.56162015  0.99399302  0.82821243     0.04300
C1531       C  0.56179069  0.97384571  0.85891487    -0.11800
C1532       C  0.58994466  0.46490445  0.85769851     0.23600
C1533       C  0.59829435  0.45987158  0.82335339    -0.12300
C1534       C  0.59014968  0.47370670  0.79093130     0.05000
C1535       C  0.61542337  0.46976996  0.88860903     0.27400
C1536       C  0.63990386  0.99495562  0.89529033    -0.13000
C1537       C  0.66058210  0.00006107  0.92539512     0.05500
C1538       C  0.66824836  0.48033254  0.94088159    -0.09000
C1539       C  0.63841127  0.44713645  0.93589549     0.06300
C1540       C  0.61229945  0.44216247  0.91066491    -0.13400
Br1541     Br  0.62840155  0.43898998  0.82592212    -0.05400
Br1542     Br  0.60279891  0.03057252  0.85125614     0.00200
Br1543     Br  0.69272549  0.04721377  0.93772768     0.00600
Br1544     Br  0.57905515  0.39581921  0.89933816    -0.03800
Br1545     Br  0.63216878  0.48216841  0.76370436     0.00700
Br1546     Br  0.54437622  0.97832437  0.90527853    -0.03100
Br1547     Br  0.66846029  0.02126352  0.85405000    -0.03900
Br1548     Br  0.63354078  0.40720723  0.96141129     0.00000
C1549       C  0.58365526  0.51370323  0.72354286     0.01500
C1550       C  0.58202627  0.50413262  0.68630231     0.04300
C1551       C  0.60738622  0.49810888  0.66958389    -0.11800
C1552       C  0.64251117  0.51654404  0.67935746     0.23600
C1553       C  0.64630062  0.03258878  0.71012418    -0.12300
C1554       C  0.61854402  0.02971865  0.73361166     0.05000
C1555       C  0.67011783  0.51850681  0.65368687     0.27400
C1556       C  0.67436530  0.49009462  0.65093150    -0.13000
C1557       C  0.69040649  0.48613440  0.62009994     0.05500
C1558       C  0.70501794  0.51206528  0.59197597    -0.09000
C1559       C  0.69183255  0.02858247  0.59553478     0.06300
C1560       C  0.68015030  0.03544489  0.62764917    -0.13400
Br1561     Br  0.69580543  0.06032704  0.72092706    -0.05400
Br1562     Br  0.59993239  0.54040102  0.64976901     0.00200
Br1563     Br  0.69138985  0.44419074  0.61804548     0.00600
Br1564     Br  0.68604696  0.07977145  0.63183274    -0.03800
Br1565     Br  0.64037277  0.05005720  0.77892487     0.00700
Br1566     Br  0.59687116  0.46898706  0.62890251    -0.03100
Br1567     Br  0.65647065  0.45523832  0.68887808    -0.03900
Br1568     Br  0.70135180  0.05939624  0.55426437     0.00000
C1569       C  0.51249685  0.44363489  0.69898767     0.01500
C1570       C  0.99969405  0.44359857  0.66275896     0.05800
C1571       C  0.99258120  0.41717351  0.63699432    -0.11800
C1572       C  0.50684678  0.39573642  0.63922694     0.23600
C1573       C  0.52964411  0.40347493  0.66723958    -0.12300
C1574       C  0.53358098  0.42745249  0.69440682     0.05000
C1575       C  0.50335612  0.37013810  0.61116398     0.27400
C1576       C  0.98831048  0.33665641  0.62134450    -0.13000
C1577       C  0.98823071  0.31318697  0.59741830     0.05500
C1578       C  0.50435118  0.32235907  0.56299507    -0.09000
C1579       C  0.52365385  0.35792875  0.55460489     0.06300
C1580       C  0.52188595  0.38138849  0.57749588    -0.13400
Br1581     Br  0.55707491  0.38079790  0.66570633    -0.05400
Br1582     Br  0.02879069  0.47607912  0.62435596     0.00200
Br1583     Br  0.96494653  0.26528699  0.61200942     0.00600
Br1584     Br  0.54565449  0.42876193  0.56130931    -0.03800
Br1585     Br  0.57316677  0.43662774  0.71878806     0.00700
Br1586     Br  0.96559332  0.40920970  0.59392171    -0.03100
Br1587     Br  0.96772193  0.31877579  0.66835432    -0.03900
Br1588     Br  0.55301716  0.37494590  0.51168987     0.00000
C1589       C  0.49884744  0.42423564  0.76972632     0.01500
C1590       C  0.97227270  0.40200643  0.79556763     0.04300
C1591       C  0.97748516  0.38665331  0.82791370    -0.11800
C1592       C  0.50422575  0.38107594  0.83036152     0.23600
C1593       C  0.52753591  0.39422844  0.80063499    -0.12300
C1594       C  0.51867013  0.40724285  0.76948990     0.05000
C1595       C  0.50322373  0.35519310  0.85881308     0.27400
C1596       C  0.49951934  0.35931558  0.89620177    -0.13000
C1597       C  0.49099842  0.33277013  0.92193307     0.05500
C1598       C  0.49355866  0.30460291  0.91294768    -0.09000
C1599       C  0.00272724  0.30310663  0.87740415     0.06300
C1600       C  0.00200944  0.32519661  0.85029185    -0.13400
Br1601     Br  0.55971065  0.37824322  0.79442413    -0.05400
Br1602     Br  0.93075464  0.36347140  0.77827423     0.00200
Br1603     Br  0.47375729  0.33400390  0.96915569     0.00600
Br1604     Br  0.98731451  0.30608945  0.80365012    -0.03800
Br1605     Br  0.49909396  0.36525373  0.74256023     0.00700
Br1606     Br  0.93922801  0.35529243  0.86050790    -0.03100
Br1607     Br  0.50643298  0.40110342  0.91403170    -0.03900
Br1608     Br  0.00831887  0.26553464  0.86468401     0.00000
C1609       C  0.99301229  0.17764616  0.93351256     0.01500
C1610       C  0.96832581  0.16500682  0.90578389     0.04300
C1611       C  0.96794025  0.14199742  0.88062504    -0.11800
C1612       C  0.99019259  0.12857199  0.88431401     0.23600
C1613       C  0.51299757  0.14002386  0.91281362    -0.12300
C1614       C  0.51285504  0.16299300  0.93757541     0.05000
C1615       C  0.99013271  0.10458427  0.85601800     0.27400
C1616       C  0.98132352  0.07054374  0.86365066    -0.13000
C1617       C  0.98045145  0.04823702  0.83547276     0.05500
C1618       C  0.99922764  0.06137927  0.79931508    -0.09000
C1619       C  0.51856393  0.09849651  0.80210684     0.06300
C1620       C  0.50719495  0.11767714  0.82241385    -0.13400
Br1621     Br  0.54908001  0.12953825  0.91883115    -0.05400
Br1622     Br  0.93511725  0.17971581  0.90132443     0.00200
Br1623     Br  0.95220360  0.00220334  0.85594598     0.00600
Br1624     Br  0.52656023  0.16725643  0.81311317    -0.03800
Br1625     Br  0.54289700  0.17641232  0.97894979     0.00700
Br1626     Br  0.94014645  0.13360095  0.83836431    -0.03100
Br1627     Br  0.97636559  0.05720672  0.91443033    -0.03900
Br1628     Br  0.55859542  0.12320891  0.83230916     0.00000
C1629       C  0.00037096  0.07619391  0.72575110     0.01500
C1630       C  0.51101516  0.11156416  0.73427757     0.04300
C1631       C  0.52696692  0.14193391  0.71000902    -0.11800
C1632       C  0.01921375  0.14078531  0.67519771     0.23600
C1633       C  0.00177251  0.10742525  0.66309782    -0.12300
C1634       C  0.99541831  0.07763622  0.68575858     0.05000
C1635       C  0.02159404  0.17081665  0.65183002     0.27400
C1636       C  0.99206479  0.17418440  0.64747635    -0.13000
C1637       C  0.98615365  0.18704404  0.61488232     0.05500
C1638       C  0.01286235  0.20384459  0.58807356    -0.09000
C1639       C  0.54239257  0.20526104  0.59473862     0.06300
C1640       C  0.54596351  0.18796813  0.62531407    -0.13400
Br1641     Br  0.98950622  0.10582298  0.61223875    -0.05400
Br1642     Br  0.47928607  0.12739220  0.74370832     0.00200
Br1643     Br  0.94035771  0.18050401  0.60864893     0.00600
Br1644     Br  0.59044448  0.19437978  0.63417356    -0.03800
Br1645     Br  0.97994994  0.04403548  0.65229162     0.00700
Br1646     Br  0.55727609  0.18880540  0.72598750    -0.03100
Br1647     Br  0.96637627  0.17419759  0.68865706    -0.03900
Br1648     Br  0.58344485  0.23272215  0.56407780     0.00000
C1649       C  0.93756922  0.43187351  0.70453832     0.01500
C1650       C  0.92257338  0.39469797  0.70970694     0.04300
C1651       C  0.89252276  0.36780049  0.69185530    -0.11800
C1652       C  0.88185738  0.37434473  0.65915557     0.23600
C1653       C  0.90283781  0.40758454  0.64476245    -0.12300
C1654       C  0.92971003  0.43552451  0.66595941     0.05000
C1655       C  0.85394609  0.34578819  0.63623405     0.27400
C1656       C  0.86313716  0.32751867  0.61297204    -0.13000
C1657       C  0.84211544  0.30957137  0.58362456     0.05500
C1658       C  0.80869236  0.30509240  0.57939193    -0.09000
C1659       C  0.79799231  0.32116095  0.60412571     0.06300
C1660       C  0.82067029  0.34179131  0.63171701    -0.13400
Br1661     Br  0.89599336  0.41030745  0.59242132    -0.05400
Br1662     Br  0.94661618  0.37312535  0.69681454     0.00200
Br1663     Br  0.86204486  0.29557433  0.54639686     0.00600
Br1664     Br  0.80563908  0.36413498  0.66374199    -0.03800
Br1665     Br  0.95600419  0.47237701  0.63250999     0.00700
Br1666     Br  0.86433064  0.32175128  0.71357545    -0.03100
Br1667     Br  0.90466859  0.32650995  0.62061504    -0.03900
Br1668     Br  0.75232310  0.31529745  0.60049099     0.00000
C1669       C  0.82777373  0.31539620  0.92862293     0.01500
C1670       C  0.83384251  0.30428095  0.89617292     0.04300
C1671       C  0.85755818  0.32820054  0.86972004    -0.11800
C1672       C  0.87611459  0.36499251  0.87485697     0.23600
C1673       C  0.87139192  0.37463929  0.91000294    -0.12300
C1674       C  0.84728317  0.35033223  0.93587512     0.05000
C1675       C  0.89608860  0.39147839  0.84257964     0.27400
C1676       C  0.93063232  0.42136166  0.84278011    -0.13000
C1677       C  0.94733709  0.44249404  0.81074061     0.05500
C1678       C  0.93443224  0.43496203  0.77526604    -0.09000
C1679       C  0.89691058  0.40655350  0.77716273     0.06300
C1680       C  0.87890515  0.38662506  0.80963172    -0.13400
Br1681     Br  0.89539972  0.42020195  0.92610582    -0.05400
Br1682     Br  0.80714834  0.25553420  0.88721864     0.00200
Br1683     Br  0.99331687  0.47781882  0.81346049     0.00600
Br1684     Br  0.82755614  0.35380038  0.81095774    -0.03800
Br1685     Br  0.84048848  0.36444407  0.98263123     0.00700
Br1686     Br  0.86195997  0.30752064  0.82660820    -0.03100
Br1687     Br  0.96005555  0.43251972  0.88425609    -0.03900
Br1688     Br  0.86235182  0.39195733  0.74116608     0.00000
C1689       C  0.69652149  0.19068773  0.91193420     0.01500
C1690       C  0.69821670  0.16129263  0.90314018     0.04300
C1691       C  0.67964994  0.14115105  0.87377981    -0.11800
C1692       C  0.65683165  0.14767593  0.85431586     0.23600
C1693       C  0.65739637  0.17836017  0.86063430    -0.12300
C1694       C  0.67619342  0.19921827  0.88966763     0.05000
C1695       C  0.62975830  0.12020206  0.83065226     0.27400
C1696       C  0.63529086  0.11976628  0.79425215    -0.13000
C1697       C  0.60974344  0.09281435  0.77240205     0.05500
C1698       C  0.57301906  0.06702290  0.78406688    -0.09000
C1699       C  0.57119896  0.06777116  0.82361547     0.06300
C1700       C  0.59945842  0.09265885  0.84576431    -0.13400
Br1701     Br  0.63610197  0.19452166  0.82711863    -0.05400
Br1702     Br  0.72307887  0.14520556  0.93202356     0.00200
Br1703     Br  0.63201900  0.09733950  0.72654576     0.00600
Br1704     Br  0.59716587  0.09119555  0.89883094    -0.03800
Br1705     Br  0.67267128  0.23903103  0.89805508     0.00700
Br1706     Br  0.68665443  0.10518780  0.85872470    -0.03100
Br1707     Br  0.67972073  0.15796852  0.77521856    -0.03900
Br1708     Br  0.53507634  0.03713869  0.85585411     0.00000
C1709       C  0.55756438  0.06929597  0.71793229     0.01500
C1710       C  0.57595421  0.10768791  0.71565723     0.04300
C1711       C  0.59631726  0.12810429  0.68429060    -0.11800
C1712       C  0.59321404  0.11337643  0.65057596     0.23600
C1713       C  0.56517665  0.07841644  0.64961438    -0.12300
C1714       C  0.55043122  0.05759419  0.68283896     0.05000
C1715       C  0.62006624  0.13451432  0.61880361     0.27400
C1716       C  0.61077816  0.14345241  0.58496365    -0.13000
C1717       C  0.63650177  0.16533532  0.55836043     0.05500
C1718       C  0.67232452  0.18029855  0.56474468    -0.09000
C1719       C  0.68234675  0.17249788  0.59729122     0.06300
C1720       C  0.65715649  0.14951397  0.62307611    -0.13400
Br1721     Br  0.55012769  0.05653199  0.60368785    -0.05400
Br1722     Br  0.58478189  0.13795507  0.75416979     0.00200
Br1723     Br  0.62307335  0.17475705  0.51206984     0.00600
Br1724     Br  0.67789294  0.14181419  0.66362766    -0.03800
Br1725     Br  0.51723957  0.01185972  0.68373717     0.00700
Br1726     Br  0.63318073  0.17644372  0.68936467    -0.03100
Br1727     Br  0.56396680  0.12955445  0.57335777    -0.03900
Br1728     Br  0.73208112  0.19615113  0.60755626     0.00000
O1729       O  0.79890980  0.76865429  0.47214567    -0.71700
O1730       O  0.72088968  0.69741582  0.02406251    -0.71900
O1731       O  0.74010578  0.71189571  0.45499001    -0.71700
O1732       O  0.78069817  0.75495824  0.04175690    -0.71700
O1733       O  0.76092377  0.78876977  0.03422481    -0.71700
O1734       O  0.70834917  0.73462587  0.45370512    -0.71700
O1735       O  0.69808006  0.72914757  0.02601736    -0.71700
O1736       O  0.76998135  0.79387846  0.46118354    -0.71800
V1737       V  0.75903480  0.73387878  0.49850218     1.35200
V1738       V  0.73480191  0.76122100  0.99408105     1.35200
C1739       C  0.79692937  0.79223732  0.45580807     0.77600
C1740       C  0.69674383  0.70160962  0.03535999     0.77600
C1741       C  0.71669498  0.71468939  0.43970199     0.77500
C1742       C  0.78017070  0.78088162  0.05190801     0.77500
O1743       O  0.52747869  0.73940316  0.03323558    -0.71700
O1744       O  0.52024653  0.78653757  0.45216876    -0.71900
O1745       O  0.52491982  0.79665446  0.02385784    -0.71700
O1746       O  0.52123714  0.72874942  0.46251677    -0.71700
O1747       O  0.96568583  0.70070728  0.46946158    -0.71700
O1748       O  0.97072148  0.76763605  0.03283925    -0.71700
O1749       O  0.96414568  0.75868489  0.46069063    -0.71700
O1750       O  0.97289984  0.70972915  0.04185246    -0.71800
V1751       V  0.52092495  0.76174598  0.99310831     1.35200
V1752       V  0.96947418  0.73478514  0.50085342     1.35200
C1753       C  0.00282982  0.71728440  0.05255871     0.77600
C1754       C  0.49080203  0.78078443  0.44261873     0.77600
C1755       C  0.49770678  0.79294212  0.03883270     0.77500
C1756       C  0.99292113  0.70413087  0.45513453     0.77500
O1757       O  0.74937935  0.95247506  0.47151037    -0.71700
O1758       O  0.70381208  0.96494520  0.05134429    -0.71900
O1759       O  0.68768144  0.95001153  0.48231649    -0.71700
O1760       O  0.76435957  0.96685816  0.04312457    -0.71700
O1761       O  0.80351033  0.53646564  0.02293835    -0.71700
O1762       O  0.72250112  0.51552851  0.46807692    -0.71700
O1763       O  0.74316270  0.53281593  0.03879157    -0.71700
O1764       O  0.78288611  0.51774289  0.45416229    -0.71800
V1765       V  0.72672272  0.95928426  0.51137106     1.35200
V1766       V  0.76262995  0.52505008  0.99680006     1.35200
C1767       C  0.77947747  0.48861944  0.44994510     0.77600
C1768       C  0.71043000  0.99443173  0.05963139     0.77600
C1769       C  0.68675274  0.97456759  0.46666826     0.77500
C1770       C  0.80330964  0.51364833  0.04297532     0.77500
C1771       C  0.50115737  0.95632150  0.24038643    -0.02400
C1772       C  0.00122220  0.54503069  0.25637951    -0.02400
C1773       C  0.54351578  0.54378292  0.25355938    -0.02400
C1774       C  0.54449034  0.99899162  0.25252251    -0.02400
C1775       C  0.95741264  0.50120946  0.24819314    -0.02400
C1776       C  0.95731240  0.95773500  0.24075267    -0.02400
C1777       C  0.83144423  0.52269101  0.06941439     0.01500
C1778       C  0.80714671  0.98514619  0.10942409     0.04300
C1779       C  0.83030193  0.99594510  0.13864383    -0.11800
C1780       C  0.87873419  0.52650411  0.12322165     0.23600
C1781       C  0.88879669  0.53254257  0.08591497    -0.12300
C1782       C  0.86549582  0.53151298  0.05946249     0.05000
C1783       C  0.90036784  0.52164993  0.15181153     0.27400
C1784       C  0.91318307  0.54253186  0.18185821    -0.13000
C1785       C  0.92036737  0.52976199  0.21420511     0.05500
C1786       C  0.93162658  0.50475229  0.21492262    -0.09000
C1787       C  0.91016033  0.48051873  0.18726814     0.06300
C1788       C  0.90004263  0.49074698  0.15408494    -0.13400
Br1789     Br  0.93056991  0.53455685  0.06893704    -0.05400
Br1790     Br  0.76279538  0.94246289  0.11527445     0.00200
Br1791     Br  0.87648729  0.51825705  0.23800999     0.00600
Br1792     Br  0.87439553  0.45981056  0.11484922    -0.03800
Br1793     Br  0.88042451  0.54292236  0.00975716     0.00700
Br1794     Br  0.81159631  0.97372807  0.18480655    -0.03100
Br1795     Br  0.90228129  0.08462318  0.19323878    -0.03900
Br1796     Br  0.86098619  0.44986508  0.19553271     0.00000
C1797       C  0.92726972  0.49611091  0.28301113     0.01500
C1798       C  0.92186725  0.52332930  0.29706086     0.04300
C1799       C  0.89854451  0.52021860  0.32617274    -0.11800
C1800       C  0.87805459  0.48960737  0.34529622     0.23600
C1801       C  0.86959802  0.95508769  0.32792445    -0.12300
C1802       C  0.88897604  0.96137751  0.29411808     0.05000
C1803       C  0.84978953  0.48549971  0.37200849     0.27400
C1804       C  0.85227577  0.48128953  0.40957194    -0.13000
C1805       C  0.82588614  0.47665254  0.43369629     0.05500
C1806       C  0.80042129  0.48368379  0.42234165    -0.09000
C1807       C  0.78790364  0.97553725  0.38697372     0.06300
C1808       C  0.82027075  0.48680490  0.36010012    -0.13400
Br1809     Br  0.82779209  0.91141788  0.34181071    -0.05400
Br1810     Br  0.94162709  0.56757215  0.27939619     0.00200
Br1811     Br  0.82431907  0.45958119  0.48231676     0.00600
Br1812     Br  0.80226354  0.97500623  0.31139415    -0.03800
Br1813     Br  0.84881176  0.94697768  0.26506565     0.00700
Br1814     Br  0.89275603  0.55774314  0.34201646    -0.03100
Br1815     Br  0.89340007  0.48725500  0.43057059    -0.03900
Br1816     Br  0.74777916  0.97671036  0.37064817     0.00000
C1817       C  0.56359880  0.98742398  0.29006273     0.01500
C1818       C  0.56632936  0.49826236  0.32730091     0.04300
C1819       C  0.56778043  0.47900509  0.35824065    -0.11800
C1820       C  0.58274735  0.95940425  0.35868476     0.23600
C1821       C  0.59395896  0.95669270  0.32469790    -0.12300
C1822       C  0.58645863  0.97082752  0.29195379     0.05000
C1823       C  0.60548659  0.96203337  0.39145133     0.27400
C1824       C  0.64606015  0.50040979  0.39212178    -0.13000
C1825       C  0.66725164  0.50666850  0.42203647     0.05500
C1826       C  0.65597385  0.96945512  0.44487221    -0.09000
C1827       C  0.62744528  0.93650929  0.43665073     0.06300
C1828       C  0.60245541  0.93294535  0.41069600    -0.13400
Br1829     Br  0.62599843  0.93790072  0.32832806    -0.05400
Br1830     Br  0.60749089  0.53560788  0.34973814     0.00200
Br1831     Br  0.69924343  0.55448400  0.43210351     0.00600
Br1832     Br  0.57244367  0.88762058  0.39443712    -0.03800
Br1833     Br  0.62833266  0.97892913  0.26518031     0.00700
Br1834     Br  0.55196523  0.48425892  0.40545251    -0.03100
Br1835     Br  0.67341646  0.52550704  0.34981668    -0.03900
Br1836     Br  0.62241548  0.89542758  0.45957895     0.00000
C1837       C  0.58022788  0.01097268  0.22373911     0.01500
C1838       C  0.57874613  0.00202585  0.18611180     0.04300
C1839       C  0.60340186  0.99512383  0.16920618    -0.11800
C1840       C  0.63806353  0.01134818  0.18042913     0.23600
C1841       C  0.64965346  0.53772330  0.20814140    -0.12300
C1842       C  0.62160966  0.53305071  0.23234139     0.05000
C1843       C  0.66517806  0.01151987  0.15557692     0.27400
C1844       C  0.66746707  0.98186620  0.15333005    -0.13000
C1845       C  0.68093160  0.97551503  0.12195073     0.05500
C1846       C  0.69436924  0.99985233  0.09254508    -0.09000
C1847       C  0.70275592  0.54183439  0.09572099     0.06300
C1848       C  0.68536357  0.54491865  0.12579547    -0.13400
Br1849     Br  0.69926687  0.56814692  0.21743027    -0.05400
Br1850     Br  0.59882360  0.03910011  0.15010602     0.00200
Br1851     Br  0.67765844  0.93162077  0.11956040     0.00600
Br1852     Br  0.68328675  0.58560914  0.12830205    -0.03800
Br1853     Br  0.64417926  0.55341639  0.27724056     0.00700
Br1854     Br  0.59301923  0.96790443  0.12644833    -0.03100
Br1855     Br  0.65158195  0.94916270  0.19311186    -0.03900
Br1856     Br  0.72109800  0.57807294  0.05861276     0.00000
C1857       C  0.50893679  0.94119625  0.19928004     0.01500
C1858       C  0.99566884  0.94046079  0.16326974     0.05800
C1859       C  0.98761096  0.91380627  0.13745537    -0.11800
C1860       C  0.50229727  0.89287966  0.13957916     0.23600
C1861       C  0.52657494  0.90187932  0.16646635    -0.12300
C1862       C  0.53049119  0.92556542  0.19409051     0.05000
C1863       C  0.49786002  0.86662237  0.11183172     0.27400
C1864       C  0.98369173  0.83253762  0.12192815    -0.13000
C1865       C  0.98468585  0.80918700  0.09847924     0.05500
C1866       C  0.49910342  0.81869897  0.06397354    -0.09000
C1867       C  0.51567059  0.85386453  0.05404045     0.06300
C1868       C  0.51416169  0.87737133  0.07707833    -0.13400
Br1869     Br  0.55590424  0.88144337  0.16266149    -0.05400
Br1870     Br  0.02518476  0.97259314  0.12465729     0.00200
Br1871     Br  0.96738304  0.76236632  0.11501724     0.00600
Br1872     Br  0.53563159  0.92432382  0.05986882    -0.03800
Br1873     Br  0.56984283  0.93444797  0.21888913     0.00700
Br1874     Br  0.95862182  0.90591055  0.09577546    -0.03100
Br1875     Br  0.96314090  0.81463091  0.16886677    -0.03900
Br1876     Br  0.54159432  0.87036924  0.00906397     0.00000
C1877       C  0.49532879  0.92180327  0.26979766     0.01500
C1878       C  0.96733096  0.89909583  0.29570492     0.04300
C1879       C  0.97222174  0.88413348  0.32838300    -0.11800
C1880       C  0.50036205  0.87899228  0.33092847     0.23600
C1881       C  0.52383494  0.89184431  0.30129442    -0.12300
C1882       C  0.51550270  0.90512401  0.26995599     0.05000
C1883       C  0.49853945  0.85273460  0.35938929     0.27400
C1884       C  0.49395290  0.85630200  0.39683512    -0.13000
C1885       C  0.48474861  0.82934888  0.42213152     0.05500
C1886       C  0.48885775  0.80214105  0.41323953    -0.09000
C1887       C  0.99553291  0.79879599  0.37772310     0.06300
C1888       C  0.99532358  0.82097770  0.35049254    -0.13400
Br1889     Br  0.55685521  0.87669954  0.29600014    -0.05400
Br1890     Br  0.92610372  0.85990333  0.27889302     0.00200
Br1891     Br  0.46527195  0.82903997  0.46867354     0.00600
Br1892     Br  0.98338549  0.80255602  0.30328505    -0.03800
Br1893     Br  0.49724895  0.86349151  0.24270442     0.00700
Br1894     Br  0.93379968  0.85469010  0.36153054    -0.03100
Br1895     Br  0.50097701  0.89779231  0.41558537    -0.03900
Br1896     Br  0.00349749  0.76258786  0.36555473     0.00000
C1897       C  0.99091464  0.67867335  0.42922255     0.01500
C1898       C  0.96801665  0.66833058  0.39984456     0.04300
C1899       C  0.96991554  0.64811623  0.37271242    -0.11800
C1900       C  0.99098610  0.63358299  0.37703129     0.23600
C1901       C  0.51158499  0.64143492  0.40802962    -0.12300
C1902       C  0.51100161  0.66344311  0.43362343     0.05000
C1903       C  0.99104692  0.60949271  0.34925709     0.27400
C1904       C  0.97860169  0.57482026  0.35764729    -0.13000
C1905       C  0.98266890  0.55232334  0.33333281     0.05500
C1906       C  0.00300804  0.56470325  0.29807570    -0.09000
C1907       C  0.52259293  0.60166789  0.29983932     0.06300
C1908       C  0.51116344  0.62194595  0.31781783    -0.13400
Br1909     Br  0.54217789  0.62438210  0.41757850    -0.05400
Br1910     Br  0.93331283  0.68115424  0.39662689     0.00200
Br1911     Br  0.95905451  0.50706366  0.35663318     0.00600
Br1912     Br  0.53277571  0.67203257  0.30838440    -0.03800
Br1913     Br  0.53745653  0.67238994  0.47721027     0.00700
Br1914     Br  0.94566821  0.64327527  0.32851522    -0.03100
Br1915     Br  0.95609405  0.56033939  0.40460750    -0.03900
Br1916     Br  0.56086310  0.62618995  0.33264185     0.00000
C1917       C  0.00225570  0.57799404  0.22482690     0.01500
C1918       C  0.51500722  0.61420793  0.23180766     0.04300
C1919       C  0.53155660  0.64390945  0.20663082    -0.11800
C1920       C  0.01814266  0.64105122  0.17310294     0.23600
C1921       C  0.99697269  0.60697282  0.16353713    -0.12300
C1922       C  0.99366897  0.57808815  0.18562653     0.05000
C1923       C  0.01938364  0.67068201  0.15018127     0.27400
C1924       C  0.98894347  0.67262196  0.14586189    -0.13000
C1925       C  0.98174885  0.68350053  0.11275978     0.05500
C1926       C  0.00821479  0.70073925  0.08582590    -0.09000
C1927       C  0.54183986  0.70585527  0.09251213     0.06300
C1928       C  0.54722053  0.69055691  0.12365670    -0.13400
Br1929     Br  0.97411260  0.60264895  0.11729044    -0.05400
Br1930     Br  0.48495748  0.63245600  0.24114738     0.00200
Br1931     Br  0.93420495  0.67191552  0.10532592     0.00600
Br1932     Br  0.59384220  0.70334409  0.13400233    -0.03800
Br1933     Br  0.98017810  0.54500321  0.15147425     0.00700
Br1934     Br  0.56278540  0.69103811  0.22173698    -0.03100
Br1935     Br  0.96111884  0.66985815  0.18649581    -0.03900
Br1936     Br  0.58180557  0.73350834  0.06050338     0.00000
C1937       C  0.93456753  0.92960252  0.20565358     0.01500
C1938       C  0.91981077  0.89236175  0.21076448     0.04300
C1939       C  0.88994019  0.86527764  0.19285255    -0.11800
C1940       C  0.87816244  0.87214811  0.16102183     0.23600
C1941       C  0.89809284  0.90586823  0.14741446    -0.12300
C1942       C  0.92593380  0.93350449  0.16792933     0.05000
C1943       C  0.84963456  0.84372209  0.13837714     0.27400
C1944       C  0.85729680  0.82313039  0.11707001    -0.13000
C1945       C  0.83456675  0.80237983  0.08989513     0.05500
C1946       C  0.80305704  0.80167611  0.08270123    -0.09000
C1947       C  0.79442470  0.82103495  0.10509994     0.06300
C1948       C  0.81697948  0.84098519  0.13308164    -0.13400
Br1949     Br  0.88697721  0.91108053  0.09761448    -0.05400
Br1950     Br  0.94304301  0.87004858  0.19765538     0.00200
Br1951     Br  0.84941723  0.77713065  0.06114946     0.00600
Br1952     Br  0.80229722  0.86395211  0.16464479    -0.03800
Br1953     Br  0.95367925  0.96955270  0.13459114     0.00700
Br1954     Br  0.86130733  0.81942281  0.21515506    -0.03100
Br1955     Br  0.89985858  0.82366919  0.12370382    -0.03900
Br1956     Br  0.75163828  0.82069573  0.09803971     0.00000
C1957       C  0.82440287  0.81636334  0.42954334     0.01500
C1958       C  0.83185961  0.80384052  0.39890183     0.04300
C1959       C  0.85306843  0.82650838  0.37045052    -0.11800
C1960       C  0.86853792  0.86330230  0.37255492     0.23600
C1961       C  0.86176900  0.87491464  0.40515380    -0.12300
C1962       C  0.84058209  0.85184452  0.43328034     0.05000
C1963       C  0.88906720  0.88860359  0.34041103     0.27400
C1964       C  0.92333498  0.91825423  0.34248474    -0.13000
C1965       C  0.94188417  0.93924936  0.31103461     0.05500
C1966       C  0.93005836  0.93250884  0.27510387    -0.09000
C1967       C  0.89249303  0.90406837  0.27526370     0.06300
C1968       C  0.87353710  0.88296952  0.30659783    -0.13400
Br1969     Br  0.87741135  0.92180523  0.41199452    -0.05400
Br1970     Br  0.81146173  0.75467024  0.39545403     0.00200
Br1971     Br  0.98862252  0.97232831  0.31552418     0.00600
Br1972     Br  0.82327636  0.84661655  0.30463288    -0.03800
Br1973     Br  0.83418882  0.86856469  0.47833959     0.00700
Br1974     Br  0.85804451  0.80391807  0.32914916    -0.03100
Br1975     Br  0.94861684  0.92858015  0.38739136    -0.03900
Br1976     Br  0.85883126  0.89124344  0.23819865     0.00000
C1977       C  0.69970787  0.69451968  0.40670861     0.01500
C1978       C  0.70198457  0.66537260  0.39839372     0.04300
C1979       C  0.68436971  0.64544608  0.36867638    -0.11800
C1980       C  0.66172752  0.65184197  0.34879123     0.23600
C1981       C  0.66305042  0.68309543  0.35364889    -0.12300
C1982       C  0.68210350  0.70449516  0.38224334     0.05000
C1983       C  0.63425477  0.62387185  0.32615265     0.27400
C1984       C  0.63988166  0.62143373  0.29024907    -0.13000
C1985       C  0.61326132  0.59471083  0.26904094     0.05500
C1986       C  0.57650650  0.56983081  0.28174693    -0.09000
C1987       C  0.57513027  0.57199157  0.32099024     0.06300
C1988       C  0.60373244  0.59751165  0.34213472    -0.13400
Br1989     Br  0.64199403  0.69857651  0.31908605    -0.05400
Br1990     Br  0.72728140  0.65003089  0.42756606     0.00200
Br1991     Br  0.63394137  0.59902465  0.22211522     0.00600
Br1992     Br  0.60163143  0.59844132  0.39504865    -0.03800
Br1993     Br  0.68540136  0.74831056  0.38576451     0.00700
Br1994     Br  0.69255900  0.61022136  0.35366161    -0.03100
Br1995     Br  0.68636561  0.65595764  0.27146404    -0.03900
Br1996     Br  0.53914975  0.54216208  0.35381484     0.00000
C1997       C  0.55946632  0.57136835  0.21725905     0.01500
C1998       C  0.57780837  0.60979257  0.21546102     0.04300
C1999       C  0.59727935  0.63013203  0.18395862    -0.11800
C2000       C  0.59439845  0.61486545  0.15092860     0.23600
C2001       C  0.56595850  0.58022941  0.14947491    -0.12300
C2002       C  0.55126099  0.55944574  0.18242627     0.05000
C2003       C  0.62071067  0.63536839  0.11937522     0.27400
C2004       C  0.60976040  0.64389333  0.08674556    -0.13000
C2005       C  0.63404683  0.66378902  0.05846306     0.05500
C2006       C  0.66998611  0.67664978  0.06204271    -0.09000
C2007       C  0.68157466  0.66864291  0.09348100     0.06300
C2008       C  0.65796176  0.64960794  0.12209508    -0.13400
Br2009     Br  0.55060950  0.55880936  0.10321422    -0.05400
Br2010     Br  0.58824546  0.64021663  0.25435786     0.00200
Br2011     Br  0.61812236  0.67273993  0.01373310     0.00600
Br2012     Br  0.68214334  0.65075121  0.16483494    -0.03800
Br2013     Br  0.51778657  0.51366629  0.18327835     0.00700
Br2014     Br  0.63263648  0.67903825  0.18745005    -0.03100
Br2015     Br  0.56256808  0.63331505  0.08133674    -0.03900
Br2016     Br  0.73168607  0.68721695  0.09865721     0.00000
O2017       O  0.79922734  0.76889771  0.97131799    -0.71700
O2018       O  0.71972659  0.69770342  0.52420875    -0.71900
O2019       O  0.74061448  0.71189697  0.95467979    -0.71700
O2020       O  0.77953521  0.75520790  0.54231714    -0.71700
O2021       O  0.76055006  0.78956180  0.53349958    -0.71700
O2022       O  0.70885113  0.73466104  0.95365316    -0.71700
O2023       O  0.69747500  0.72992746  0.52595563    -0.71700
O2024       O  0.77000432  0.79404870  0.96175336    -0.71800
V2025       V  0.75982416  0.73382939  0.99805584     1.35200
V2026       V  0.73440405  0.76156412  0.49373835     1.35200
C2027       C  0.79682095  0.79246402  0.95549157     0.77600
C2028       C  0.69580841  0.70223638  0.53546530     0.77600
C2029       C  0.71722453  0.71476536  0.93950955     0.77500
C2030       C  0.77940242  0.78156940  0.55171328     0.77500
O2031       O  0.52924848  0.74060836  0.53390279    -0.71700
O2032       O  0.51716656  0.78564907  0.95280457    -0.71900
O2033       O  0.52727699  0.79814608  0.52338971    -0.71700
O2034       O  0.51875190  0.72817771  0.96185676    -0.71700
O2035       O  0.96468530  0.70019084  0.96991637    -0.71700
O2036       O  0.97061003  0.76760233  0.53234213    -0.71700
O2037       O  0.96341508  0.75839014  0.96134465    -0.71700
O2038       O  0.97327460  0.71003129  0.54139451    -0.71800
V2039       V  0.52339136  0.76283619  0.49314658     1.35200
V2040       V  0.96895890  0.73449445  0.00136656     1.35200
C2041       C  0.00315697  0.71789170  0.55255493     0.77600
C2042       C  0.48755599  0.77951420  0.94347059     0.77600
C2043       C  0.50002548  0.79440481  0.53838525     0.77500
C2044       C  0.99178130  0.70359077  0.95520290     0.77500
O2045       O  0.75059075  0.95258437  0.97251144    -0.71700
O2046       O  0.70331215  0.96369386  0.55177557    -0.71900
O2047       O  0.68954747  0.95150561  0.98155865    -0.71700
O2048       O  0.76447623  0.96723543  0.54186543    -0.71700
O2049       O  0.80236621  0.53616936  0.52250611    -0.71700
O2050       O  0.72310668  0.51656180  0.97018815    -0.71700
O2051       O  0.74163367  0.53227957  0.53713874    -0.71700
O2052       O  0.78306202  0.51846487  0.95475185    -0.71800
V2053       V  0.72761836  0.95992996  0.01168322     1.35200
V2054       V  0.76173926  0.52437816  0.49561253     1.35200
C2055       C  0.78013285  0.48953274  0.95068498     0.77600
C2056       C  0.70864770  0.99283505  0.55952074     0.77600
C2057       C  0.68906198  0.97640538  0.96622802     0.77500
C2058       C  0.80255901  0.51328994  0.54209291     0.77500
C2059       C  0.50141529  0.95671530  0.74074846    -0.02400
C2060       C  0.00027672  0.54493640  0.75637400    -0.02400
C2061       C  0.54333267  0.54348132  0.75380820    -0.02400
C2062       C  0.54491827  0.99922710  0.75295491    -0.02400
C2063       C  0.95642870  0.50114541  0.74799820    -0.02400
C2064       C  0.95682617  0.95816286  0.74010197    -0.02400
C2065       C  0.83062234  0.52232216  0.56867147     0.01500
C2066       C  0.80711348  0.98840194  0.60879095     0.04300
C2067       C  0.83129786  0.99924519  0.63708961    -0.11800
C2068       C  0.87812422  0.52663320  0.62256679     0.23600
C2069       C  0.88831635  0.53306909  0.58528934    -0.12300
C2070       C  0.86491393  0.53182352  0.55880035     0.05000
C2071       C  0.89986402  0.52197437  0.65118385     0.27400
C2072       C  0.91188829  0.54235872  0.68163911    -0.13000
C2073       C  0.91886335  0.52921506  0.71384763     0.05500
C2074       C  0.93106338  0.50495088  0.71438039    -0.09000
C2075       C  0.91013185  0.48113686  0.68633836     0.06300
C2076       C  0.89979251  0.49128391  0.65329115    -0.13400
Br2077     Br  0.93018915  0.53525587  0.56835617    -0.05400
Br2078     Br  0.76075970  0.94899228  0.61749676     0.00200
Br2079     Br  0.87443508  0.51613886  0.73747941     0.00600
Br2080     Br  0.87265105  0.45988850  0.61497335    -0.03800
Br2081     Br  0.87987251  0.54340467  0.50909952     0.00700
Br2082     Br  0.81329950  0.97910214  0.68408972    -0.03100
Br2083     Br  0.90852537  0.08948852  0.68666502    -0.03900
Br2084     Br  0.86264956  0.44750297  0.69610645     0.00000
C2085       C  0.92627921  0.49618079  0.78265614     0.01500
C2086       C  0.92079293  0.52348948  0.79619483     0.04300
C2087       C  0.89732349  0.52058620  0.82499715    -0.11800
C2088       C  0.87722800  0.49024263  0.84465753     0.23600
C2089       C  0.86744736  0.95419897  0.82325512    -0.12300
C2090       C  0.88734796  0.96199566  0.78958989     0.05000
C2091       C  0.84934197  0.48631129  0.87170368     0.27400
C2092       C  0.85227398  0.48217796  0.90917814    -0.13000
C2093       C  0.82618209  0.47750673  0.93364164     0.05500
C2094       C  0.80071737  0.48465343  0.92272788    -0.09000
C2095       C  0.78578320  0.97184944  0.88755101     0.06300
C2096       C  0.81943136  0.48706311  0.86020991    -0.13400
Br2097     Br  0.82501852  0.91010521  0.83396070    -0.05400
Br2098     Br  0.94052974  0.56752292  0.77798048     0.00200
Br2099     Br  0.82482810  0.45983998  0.98194817     0.00600
Br2100     Br  0.79669057  0.96945202  0.81157393    -0.03800
Br2101     Br  0.84821390  0.95233580  0.76036532     0.00700
Br2102     Br  0.89103591  0.55813454  0.83973180    -0.03100
Br2103     Br  0.89320409  0.48736087  0.92963231    -0.03900
Br2104     Br  0.74349673  0.96983757  0.87325634     0.00000
C2105       C  0.56398047  0.98750730  0.79035783     0.01500
C2106       C  0.56632541  0.49808828  0.82773045     0.04300
C2107       C  0.56845564  0.47930186  0.85879275    -0.11800
C2108       C  0.58376861  0.95998562  0.85878374     0.23600
C2109       C  0.59452650  0.95686260  0.82482185    -0.12300
C2110       C  0.58689633  0.97092038  0.79214003     0.05000
C2111       C  0.60734703  0.96371745  0.89110728     0.27400
C2112       C  0.64873697  0.50065837  0.88969502    -0.13000
C2113       C  0.67136956  0.50757576  0.91859616     0.05500
C2114       C  0.65865239  0.97161551  0.94383064    -0.09000
C2115       C  0.62897075  0.93877743  0.93722494     0.06300
C2116       C  0.60352348  0.93512116  0.91181794    -0.13400
Br2117     Br  0.62589714  0.93730782  0.82864437    -0.05400
Br2118     Br  0.60745215  0.53541857  0.85039833     0.00200
Br2119     Br  0.70855609  0.55516936  0.92283325     0.00600
Br2120     Br  0.57040221  0.88956558  0.89838032    -0.03800
Br2121     Br  0.62871591  0.97873190  0.76535922     0.00700
Br2122     Br  0.55228798  0.48407368  0.90605821    -0.03100
Br2123     Br  0.67341253  0.52490415  0.84590967    -0.03900
Br2124     Br  0.62266428  0.89784511  0.96175738     0.00000
C2125       C  0.58063327  0.01107231  0.72421569     0.01500
C2126       C  0.57910956  0.00188755  0.68669314     0.04300
C2127       C  0.60349364  0.99443622  0.67019977    -0.11800
C2128       C  0.63823097  0.01085625  0.68117670     0.23600
C2129       C  0.64982540  0.53746421  0.70876754    -0.12300
C2130       C  0.62164090  0.53287706  0.73274278     0.05000
C2131       C  0.66513248  0.01073093  0.65625283     0.27400
C2132       C  0.66684596  0.98075053  0.65379694    -0.13000
C2133       C  0.67911473  0.97375555  0.62192868     0.05500
C2134       C  0.69247251  0.99802519  0.59245400    -0.09000
C2135       C  0.70444295  0.54249450  0.59698557     0.06300
C2136       C  0.68665304  0.54521132  0.62699654    -0.13400
Br2137     Br  0.69934632  0.56774897  0.71855268    -0.05400
Br2138     Br  0.59925763  0.03884979  0.65052466     0.00200
Br2139     Br  0.67298315  0.92868119  0.61853901     0.00600
Br2140     Br  0.68469882  0.58592534  0.63000624    -0.03800
Br2141     Br  0.64372110  0.55329984  0.77763383     0.00700
Br2142     Br  0.59285408  0.96679200  0.62780785    -0.03100
Br2143     Br  0.65144480  0.94832512  0.69381233    -0.03900
Br2144     Br  0.72643401  0.58089491  0.56242026     0.00000
C2145       C  0.50926808  0.94151195  0.69972833     0.01500
C2146       C  0.99458143  0.93997028  0.66327706     0.05800
C2147       C  0.98612236  0.91307721  0.63768472    -0.11800
C2148       C  0.50318080  0.89358158  0.63965731     0.23600
C2149       C  0.52657994  0.90174583  0.66734072    -0.12300
C2150       C  0.53034930  0.92535968  0.69498414     0.05000
C2151       C  0.49920029  0.86769242  0.61160691     0.27400
C2152       C  0.98179430  0.83189844  0.62164999    -0.13000
C2153       C  0.98261070  0.80858262  0.59797575     0.05500
C2154       C  0.50119550  0.82009446  0.56365396    -0.09000
C2155       C  0.51807334  0.85538962  0.55412746     0.06300
C2156       C  0.51610990  0.87871591  0.57712162    -0.13400
Br2157     Br  0.55510178  0.88033989  0.66468096    -0.05400
Br2158     Br  0.02442748  0.97167661  0.62455171     0.00200
Br2159     Br  0.96310180  0.76121273  0.61367087     0.00600
Br2160     Br  0.53747931  0.92569399  0.56000620    -0.03800
Br2161     Br  0.56935643  0.93397078  0.72019289     0.00700
Br2162     Br  0.95704792  0.90511352  0.59609407    -0.03100
Br2163     Br  0.96126922  0.81405225  0.66866382    -0.03900
Br2164     Br  0.54490694  0.87232933  0.50972644     0.00000
C2165       C  0.49499979  0.92202398  0.77041218     0.01500
C2166       C  0.96615876  0.89914947  0.79589418     0.04300
C2167       C  0.97094879  0.88448823  0.82891926    -0.11800
C2168       C  0.49885135  0.87917003  0.83252670     0.23600
C2169       C  0.52281350  0.89198624  0.80327934    -0.12300
C2170       C  0.51509517  0.90525032  0.77142793     0.05000
C2171       C  0.49631819  0.85252888  0.86107691     0.27400
C2172       C  0.49087381  0.85547072  0.89854229    -0.13000
C2173       C  0.48110440  0.82801677  0.92344570     0.05500
C2174       C  0.48539473  0.80095129  0.91434439    -0.09000
C2175       C  0.99519432  0.79928040  0.87847904     0.06300
C2176       C  0.99414067  0.82108676  0.85138391    -0.13400
Br2177     Br  0.55550072  0.87639458  0.79913944    -0.05400
Br2178     Br  0.92503942  0.85983239  0.77919648     0.00200
Br2179     Br  0.46067522  0.82674067  0.96976762     0.00600
Br2180     Br  0.98123342  0.80210131  0.80450624    -0.03800
Br2181     Br  0.49716866  0.86365094  0.74406984     0.00700
Br2182     Br  0.93248524  0.85570628  0.86221244    -0.03100
Br2183     Br  0.49691026  0.89647476  0.91790381    -0.03900
Br2184     Br  0.00544927  0.76461863  0.86614414     0.00000
C2185       C  0.98967680  0.67825136  0.92912280     0.01500
C2186       C  0.96703661  0.66838791  0.89956497     0.04300
C2187       C  0.96920523  0.64861107  0.87208775    -0.11800
C2188       C  0.99011094  0.63388718  0.87631683     0.23600
C2189       C  0.51141230  0.64207223  0.90778983    -0.12300
C2190       C  0.51049011  0.66406619  0.93316647     0.05000
C2191       C  0.99007999  0.60979971  0.84850719     0.27400
C2192       C  0.97695068  0.57501193  0.85682476    -0.13000
C2193       C  0.98131290  0.55239729  0.83299839     0.05500
C2194       C  0.00197211  0.56461322  0.79799618    -0.09000
C2195       C  0.52200730  0.60126014  0.80000958     0.06300
C2196       C  0.51042960  0.62139939  0.81804769    -0.13400
Br2197     Br  0.54395220  0.62733173  0.91670632    -0.05400
Br2198     Br  0.93263116  0.68161058  0.89645772     0.00200
Br2199     Br  0.95800186  0.50738679  0.85668239     0.00600
Br2200     Br  0.53205822  0.67151917  0.80878550    -0.03800
Br2201     Br  0.53925992  0.67583272  0.97539620     0.00700
Br2202     Br  0.94560671  0.64461085  0.82764836    -0.03100
Br2203     Br  0.95336836  0.56075762  0.90320484    -0.03900
Br2204     Br  0.56058469  0.62585067  0.83236023     0.00000
C2205       C  0.00140609  0.57804716  0.72498291     0.01500
C2206       C  0.51453693  0.61383424  0.73198313     0.04300
C2207       C  0.53100530  0.64351650  0.70675826    -0.11800
C2208       C  0.01715913  0.64104440  0.67331194     0.23600
C2209       C  0.99537044  0.60691969  0.66411960    -0.12300
C2210       C  0.99240485  0.57809602  0.68595805     0.05000
C2211       C  0.01868838  0.67073247  0.65025038     0.27400
C2212       C  0.98836622  0.67282439  0.64570175    -0.13000
C2213       C  0.98157666  0.68404370  0.61259408     0.05500
C2214       C  0.00833968  0.70145664  0.58599657    -0.09000
C2215       C  0.54171721  0.70431324  0.59179246     0.06300
C2216       C  0.54680134  0.68941790  0.62339556    -0.13400
Br2217     Br  0.97137896  0.60229445  0.61861478    -0.05400
Br2218     Br  0.48440532  0.63199343  0.74156940     0.00200
Br2219     Br  0.93413349  0.67251866  0.60452750     0.00600
Br2220     Br  0.59330519  0.70226806  0.63414456    -0.03800
Br2221     Br  0.97995904  0.54558036  0.65129593     0.00700
Br2222     Br  0.56218343  0.69066109  0.72181648    -0.03100
Br2223     Br  0.95899843  0.66778847  0.68580448    -0.03900
Br2224     Br  0.58086048  0.72841470  0.55802627     0.00000
C2225       C  0.93392133  0.92997178  0.70519294     0.01500
C2226       C  0.91848738  0.89263796  0.71062183     0.04300
C2227       C  0.88793227  0.86601588  0.69333552    -0.11800
C2228       C  0.87682434  0.87284675  0.66103560     0.23600
C2229       C  0.89727887  0.90643608  0.64713998    -0.12300
C2230       C  0.92531464  0.93396906  0.66754081     0.05000
C2231       C  0.84838140  0.84443810  0.63833462     0.27400
C2232       C  0.85613490  0.82386953  0.61708953    -0.13000
C2233       C  0.83387928  0.80368398  0.58936912     0.05500
C2234       C  0.80229020  0.80274692  0.58224872    -0.09000
C2235       C  0.79354147  0.82210654  0.60451762     0.06300
C2236       C  0.81586250  0.84187415  0.63273029    -0.13400
Br2237     Br  0.88634221  0.91176805  0.59732338    -0.05400
Br2238     Br  0.94139359  0.86977512  0.69817376     0.00200
Br2239     Br  0.84968759  0.78005720  0.55926312     0.00600
Br2240     Br  0.80095943  0.86452523  0.66449748    -0.03800
Br2241     Br  0.95360639  0.96984210  0.63417153     0.00700
Br2242     Br  0.85873640  0.82065145  0.71611437    -0.03100
Br2243     Br  0.89779975  0.82309151  0.62502674    -0.03900
Br2244     Br  0.75119935  0.82240285  0.59664120     0.00000
C2245       C  0.82335585  0.81636619  0.92843664     0.01500
C2246       C  0.82983032  0.80350004  0.89744239     0.04300
C2247       C  0.85115300  0.82593837  0.86890197    -0.11800
C2248       C  0.86618000  0.86270488  0.87044575     0.23600
C2249       C  0.85888561  0.87445478  0.90255528    -0.12300
C2250       C  0.83901406  0.85185556  0.93148516     0.05000
C2251       C  0.88730063  0.88811697  0.83858869     0.27400
C2252       C  0.92124650  0.91816174  0.84162207    -0.13000
C2253       C  0.94063369  0.93936888  0.81053140     0.05500
C2254       C  0.92941553  0.93311850  0.77439225    -0.09000
C2255       C  0.89197975  0.90491064  0.77386416     0.06300
C2256       C  0.87274525  0.88258803  0.80428116    -0.13400
Br2257     Br  0.87140127  0.92066861  0.90716594    -0.05400
Br2258     Br  0.80743709  0.75414087  0.89341338     0.00200
Br2259     Br  0.98756605  0.97161718  0.81588883     0.00600
Br2260     Br  0.82341930  0.84491435  0.79995165    -0.03800
Br2261     Br  0.83346642  0.86937075  0.97640010     0.00700
Br2262     Br  0.85753713  0.80302674  0.82884921    -0.03100
Br2263     Br  0.94490938  0.92867605  0.88760496    -0.03900
Br2264     Br  0.85895237  0.89570437  0.73715256     0.00000
C2265       C  0.70025321  0.69455653  0.90656018     0.01500
C2266       C  0.70161856  0.66479661  0.89888449     0.04300
C2267       C  0.68372811  0.64475590  0.86934643    -0.11800
C2268       C  0.66134016  0.65144179  0.84936523     0.23600
C2269       C  0.66374731  0.68331491  0.85345310    -0.12300
C2270       C  0.68377793  0.70517021  0.88138608     0.05000
C2271       C  0.63377690  0.62359367  0.82666963     0.27400
C2272       C  0.63934232  0.62146287  0.79066808    -0.13000
C2273       C  0.61290155  0.59464584  0.76942763     0.05500
C2274       C  0.57619708  0.56955400  0.78209563    -0.09000
C2275       C  0.57476628  0.57152426  0.82138590     0.06300
C2276       C  0.60329819  0.59706523  0.84260346    -0.13400
Br2277     Br  0.64280283  0.69883851  0.81879888    -0.05400
Br2278     Br  0.72644927  0.64911768  0.92835716     0.00200
Br2279     Br  0.63380605  0.59895395  0.72257424     0.00600
Br2280     Br  0.60100880  0.59793310  0.89550855    -0.03800
Br2281     Br  0.69126897  0.75086376  0.88241916     0.00700
Br2282     Br  0.69162288  0.60935013  0.85436657    -0.03100
Br2283     Br  0.68544899  0.65668948  0.77168351    -0.03900
Br2284     Br  0.53868892  0.54163264  0.85415979     0.00000
C2285       C  0.55926383  0.57104005  0.71748203     0.01500
C2286       C  0.57746241  0.60943897  0.71563050     0.04300
C2287       C  0.59694050  0.62980959  0.68417411    -0.11800
C2288       C  0.59410790  0.61457202  0.65114290     0.23600
C2289       C  0.56595082  0.57982397  0.64968240    -0.12300
C2290       C  0.55123054  0.55907907  0.68265256     0.05000
C2291       C  0.62017390  0.63527963  0.61954788     0.27400
C2292       C  0.60891695  0.64371109  0.58708484    -0.13000
C2293       C  0.63308116  0.66407545  0.55886888     0.05500
C2294       C  0.66913824  0.67743638  0.56237974    -0.09000
C2295       C  0.68094018  0.66938642  0.59365851     0.06300
C2296       C  0.65745383  0.64984564  0.62215724    -0.13400
Br2297     Br  0.55122423  0.55827018  0.60337717    -0.05400
Br2298     Br  0.58769971  0.63990615  0.75437589     0.00200
Br2299     Br  0.61679793  0.67268727  0.51425721     0.00600
Br2300     Br  0.68164048  0.65043031  0.66468573    -0.03800
Br2301     Br  0.51774763  0.51336202  0.68356228     0.00700
Br2302     Br  0.63235277  0.67873169  0.68781082    -0.03100
Br2303     Br  0.56127064  0.63194348  0.58181558    -0.03900
Br2304     Br  0.73110684  0.68828763  0.59873462     0.00000
loop_ 
_geom_bond_atom_site_label_1 
_geom_bond_atom_site_label_2 
_geom_bond_distance 
_geom_bond_site_symmetry_2 
_ccdc_geom_bond_type 
O1            V9   1.915       .  S
O1           C11   1.267       .  A
O2          V297   1.908   1_554  S
O2           C12   1.268       .  A
O3            V9   1.890       .  S
O3           C13   1.260       .  A
O4          V297   1.902   1_554  S
O4           C14   1.266       .  A
O5           V10   1.928   1_554  S
O5           C14   1.271       .  A
O6          V298   1.914       .  S
O6           C13   1.269       .  A
O7           V10   1.914   1_554  S
O7           C12   1.266       .  A
O8          V298   1.909       .  S
O8           C11   1.266       .  A
V9          O290   1.909       .  S
V9          O292   1.899       .  S
V9          V298   2.077       .  T
V10         O294   1.912       .  S
V10         O296   1.909       .  S
V10         V297   2.078       .  T
C11         C229   1.494       .  S
C12         C278   1.498       .  S
C13         C249   1.507       .  S
C14         C218   1.511       .  S
O15          V23   1.906   1_554  S
O15        C1177   1.264       .  A
O16         V311   1.901       .  S
O16          C26   1.262   1_455  A
O17          V23   1.922   1_554  S
O17          C27   1.269       .  A
O18         V311   1.919       .  S
O18        C1180   1.271   1_455  A
O19          V24   1.902       .  S
O19          C28   1.262       .  A
O20         V312   1.899       .  S
O20        C1179   1.264       .  A
O21          V24   1.922       .  S
O21        C1178   1.270       .  A
O22         V312   1.927       .  S
O22          C25   1.271       .  A
V23         O304   1.902       .  S
V23         O306   1.916       .  S
V23        V1464   2.081   1_456  T
V24         O308   1.898       .  S
V24         O310   1.930       .  S
V24        V1463   2.081       .  T
C25        O1167   1.262       .  A
C25         C198   1.524       .  S
C26        O1173   1.271       .  A
C26         C158   1.489       .  S
C27        O1172   1.264   1_455  A
C27         C138   1.496       .  S
C28        O1170   1.270       .  A
C28         C169   1.498       .  S
O29          V37   1.894       .  S
O29         C615   1.261       .  A
O30         V325   1.887       .  S
O30          C40   1.258       .  A
O31          V37   1.919       .  S
O31          C41   1.269       .  A
O32         V325   1.923       .  S
O32         C618   1.272       .  A
O33          V38   1.903   1_554  S
O33          C42   1.265   1_545  A
O34         V326   1.899       .  S
O34         C617   1.264   1_545  A
O35          V38   1.902   1_554  S
O35         C616   1.265   1_545  A
O36         V326   1.915       .  S
O36          C39   1.267   1_545  A
V37         O318   1.887       .  S
V37         O320   1.921       .  S
V37         V902   2.078       .  T
V38         O322   1.905       .  S
V38         O324   1.918       .  S
V38         V901   2.077   1_546  T
C39         O605   1.268       .  A
C39          C78   1.499       .  S
C40         O611   1.272       .  A
C40         C118   1.508       .  S
C41         O610   1.263       .  A
C41          C98   1.518       .  S
C42         O608   1.268       .  A
C42          C49   1.508   1_565  S
C43          C46   1.972       .  S
C43        C1200   2.010   1_455  S
C43         C129   1.797       .  S
C43         C149   1.799       .  S
C44          C47   1.966   1_545  S
C44        C1197   1.970       .  S
C44         C178   1.788       .  S
C44         C189   1.855       .  S
C45        C1196   1.969   1_455  S
C45         C622   2.031   1_545  S
C45         C258   1.722       .  S
C45         C269   1.713       .  S
C46         C621   2.026       .  S
C46          C89   1.844       .  S
C46         C109   1.743       .  S
C47         C624   2.031       .  S
C47          C58   1.769   1_565  S
C47          C69   1.792       .  S
C48        C1195   2.012       .  S
C48         C623   2.017       .  S
C48         C209   1.776       .  S
C48         C238   1.697       .  S
C49          C54   1.415       .  A
C49         C626   1.416   1_545  A
C50          C51   1.403       .  A
C50         C625   1.395       .  A
C50         Br62   1.927       .  S
C51         C628   1.427       .  A
C51         Br66   1.912       .  S
C52          C55   1.542       .  S
C52          C53   1.417       .  A
C52         C627   1.421   1_545  A
C53          C54   1.418       .  A
C53         Br61   1.895       .  S
C54         Br65   1.939       .  S
C55          C56   1.393       .  A
C55          C60   1.386   1_545  A
C56          C57   1.447       .  A
C56        Br643   1.943       .  S
C57          C58   1.493       .  A
C57         Br63   1.963       .  S
C58          C59   1.469   1_545  A
C59          C60   1.457       .  A
C59         Br68   1.896       .  S
C60         Br64   1.947       .  S
Br67        C632   1.931       .  S
C69          C70   1.493   1_565  A
C69         C650   1.486       .  A
C70          C71   1.457       .  A
C70         Br82   1.836       .  S
C71          C72   1.380   1_545  A
C71         Br86   1.960       .  S
C72          C75   1.548       .  S
C72         C649   1.401       .  A
C73          C74   1.465       .  A
C73         C648   1.401       .  A
C73         Br81   1.949       .  S
C74         C645   1.488       .  A
C74         Br85   1.934       .  S
C75          C76   1.423       .  A
C75          C80   1.427       .  A
C76          C77   1.413       .  A
C76         Br87   1.909       .  S
C77          C78   1.404       .  A
C77         Br83   1.933       .  S
C78         C655   1.409       .  A
C79         C654   1.406       .  A
C79         C656   1.422       .  A
C79         Br88   1.930       .  S
C80         C655   1.424       .  A
C80        Br660   1.921       .  S
Br84        C656   1.923       .  S
C89          C94   1.563       .  A
C89         C666   1.465       .  A
C90          C91   1.450       .  A
C90         C665   1.460       .  A
C90        Br102   1.947   1_565  S
C91         C668   1.425       .  A
C91        Br106   1.958       .  S
C92          C95   1.555       .  S
C92          C93   1.388       .  A
C92         C667   1.423       .  A
C93          C94   1.480       .  A
C93        Br101   2.025       .  S
C94        Br105   1.989       .  S
C95         C100   1.430       .  A
C95         C672   1.422       .  A
C96          C97   1.397       .  A
C96         C671   1.423       .  A
C96        Br107   1.929   1_565  S
C97         C674   1.411       .  A
C97        Br103   1.932   1_565  S
C98          C99   1.421       .  A
C98         C673   1.414       .  A
C99         C100   1.430       .  A
C99        Br108   1.938       .  S
C100       Br104   1.907       .  S
C109        C110   1.455       .  A
C109        C690   1.504       .  A
C110        C111   1.444       .  A
C110       Br122   1.931       .  S
C111        C112   1.400       .  A
C111       Br126   1.935       .  S
C112        C115   1.518       .  S
C112        C689   1.389       .  A
C113        C114   1.467       .  A
C113        C688   1.398       .  A
C113       Br121   1.950       .  S
C114        C685   1.502       .  A
C114       Br125   1.952       .  S
C115        C116   1.408       .  A
C115        C696   1.416       .  A
C116        C117   1.413       .  A
C116       Br127   1.925       .  S
C117        C118   1.429       .  A
C117       Br123   1.939       .  S
C118        C695   1.416       .  A
C119        C120   1.409       .  A
C119        C694   1.417   1_545  A
C119       Br128   1.939       .  S
C120        C691   1.413       .  A
C120       Br124   1.911       .  S
C129        C134   1.481       .  A
C129       C1282   1.490       .  A
C130        C131   1.463       .  A
C130       C1281   1.490       .  A
C130       Br142   1.949       .  S
C131       C1284   1.401       .  A
C131       Br146   1.941       .  S
C132        C135   1.533       .  S
C132        C133   1.381       .  A
C132       C1283   1.400   1_455  A
C133        C134   1.449       .  A
C133       Br141   1.981       .  S
C134       Br145   1.839       .  S
C135        C140   1.429       .  A
C135       C1288   1.424   1_455  A
C136        C137   1.411       .  A
C136       C1287   1.424       .  A
C136       Br147   1.925       .  S
C137       C1290   1.409       .  A
C137       Br143   1.931       .  S
C138        C139   1.409       .  A
C138       C1289   1.406   1_455  A
C139        C140   1.419       .  A
C139       Br148   1.931       .  S
C140       Br144   1.925       .  S
C149        C154   1.454       .  A
C149       C1302   1.477   1_455  A
C150        C151   1.455       .  A
C150       C1301   1.478       .  A
C150       Br162   1.902       .  S
C151       C1304   1.400       .  A
C151       Br166   1.955       .  S
C152        C155   1.552       .  S
C152        C153   1.409       .  A
C152       C1303   1.400   1_455  A
C153        C154   1.438       .  A
C153       Br161   1.940       .  S
C154       Br165   1.948       .  S
C155        C156   1.430       .  A
C155       C1312   1.431       .  A
C156        C157   1.409   1_455  A
C156       Br167   1.899       .  S
C157        C158   1.397       .  A
C157       Br163   1.932       .  S
C158       C1311   1.406   1_655  A
C159        C160   1.418       .  A
C159       C1310   1.406       .  A
C159       Br168   1.927       .  S
C160       C1307   1.431       .  A
C160       Br164   1.921       .  S
C169        C170   1.413       .  A
C169       C1326   1.406       .  A
C170        C171   1.417       .  A
C170       Br182   1.934       .  S
C171        C172   1.423       .  A
C171       Br186   1.930       .  S
C172        C175   1.535       .  S
C172       C1325   1.432       .  A
C173        C174   1.416       .  A
C173       C1324   1.434   1_455  A
C173       Br181   1.925       .  S
C174       C1321   1.406   1_455  A
C174       Br185   1.938       .  S
C175        C176   1.408       .  A
C175       C1332   1.404       .  A
C176        C177   1.467       .  A
C176       Br187   1.945       .  S
C177        C178   1.519       .  A
C177       Br183   1.940       .  S
C178       C1331   1.476       .  A
C179        C180   1.446       .  A
C179       C1330   1.477   1_455  A
C179       Br188   1.933       .  S
C180       C1327   1.406   1_455  A
C180       Br184   1.972       .  S
C189        C194   1.508       .  A
C189       C1342   1.500       .  A
C190        C191   1.466       .  A
C190       C1341   1.502   1_455  A
C190       Br202   1.938   1_455  S
C191       C1344   1.397       .  A
C191       Br206   1.953       .  S
C192        C195   1.557       .  S
C192        C193   1.385       .  A
C192       C1343   1.394       .  A
C193        C194   1.474       .  A
C193       Br201   1.967       .  S
C194       Br205   1.830       .  S
C195        C196   1.422       .  A
C195       C1352   1.414       .  A
C196        C197   1.418       .  A
C196       Br207   1.912       .  S
C197        C198   1.419       .  A
C197       Br203   1.936       .  S
C198       C1351   1.427       .  A
C199        C200   1.424       .  A
C199       C1350   1.426       .  A
C199       Br208   1.942       .  S
C200       C1347   1.416       .  A
C200       Br204   1.895       .  S
C209        C210   1.470       .  A
C209        C214   1.500       .  A
C210        C211   1.443       .  A
C210       Br222   1.875       .  S
C211        C212   1.390       .  A
C211       Br226   1.943       .  S
C212        C215   1.533       .  S
C212        C213   1.393       .  A
C213        C214   1.467       .  A
C213       Br221   1.979       .  S
C214       Br225   1.884       .  S
C215        C216   1.416       .  A
C215        C220   1.419       .  A
C216        C217   1.411       .  A
C216       Br227   1.908       .  S
C217        C218   1.414       .  A
C217       Br223   1.940       .  S
C218        C219   1.419       .  A
C219        C220   1.426       .  A
C219       Br228   1.930       .  S
C220       Br224   1.921       .  S
C229        C230   1.401       .  A
C229        C234   1.396       .  A
C230        C231   1.421       .  A
C230       Br242   1.937       .  S
C231        C232   1.450       .  A
C231       Br246   1.939       .  S
C232        C235   1.576       .  S
C232        C233   1.439       .  A
C233        C234   1.420       .  A
C233       Br241   1.893       .  S
C234       Br245   1.945       .  S
C235        C236   1.434       .  A
C235        C240   1.413       .  A
C236        C237   1.446       .  A
C236       Br247   1.937       .  S
C237        C238   1.419       .  A
C237       Br243   1.849       .  S
C238        C239   1.486       .  A
C239        C240   1.449       .  A
C239       Br248   1.900       .  S
C240       Br244   1.979       .  S
C249        C250   1.427       .  A
C249        C254   1.422       .  A
C250        C251   1.410       .  A
C250       Br262   1.939       .  S
C251        C252   1.405       .  A
C251       Br266   1.921       .  S
C252        C255   1.513       .  S
C252        C253   1.412       .  A
C253        C254   1.414       .  A
C253       Br261   1.924       .  S
C254       Br265   1.937       .  S
C255        C256   1.377       .  A
C255        C260   1.385       .  A
C256        C257   1.439       .  A
C256       Br267   1.956       .  S
C257        C258   1.496       .  A
C257       Br263   1.924       .  S
C258        C259   1.473       .  A
C259        C260   1.458       .  A
C259       Br268   1.884       .  S
C260       Br264   1.972       .  S
C269        C270   1.497       .  A
C269        C274   1.395       .  A
C270        C271   1.451       .  A
C270       Br282   1.908       .  S
C271        C272   1.407       .  A
C271       Br286   1.963       .  S
C272        C275   1.574       .  S
C272        C273   1.428       .  A
C273        C274   1.461       .  A
C273       Br281   1.940       .  S
C274       Br285   1.824       .  S
C275        C276   1.436       .  A
C275        C280   1.447       .  A
C276        C277   1.427       .  A
C276       Br287   1.908       .  S
C277        C278   1.406       .  A
C277       Br283   1.934       .  S
C278        C279   1.394       .  A
C279        C280   1.415       .  A
C279       Br288   1.954       .  S
C280       Br284   1.900       .  S
O289        V297   1.915       .  S
O289        C299   1.267       .  A
O290        C300   1.268       .  A
O291        V297   1.890       .  S
O291        C301   1.260       .  A
O292        C302   1.265       .  A
O293        V298   1.926       .  S
O293        C302   1.270       .  A
O294        C301   1.268       .  A
O295        V298   1.911       .  S
O295        C300   1.265       .  A
O296        C299   1.266       .  A
C299        C517   1.495       .  S
C300        C566   1.495       .  S
C301        C537   1.510       .  S
C302        C506   1.506       .  S
O303        V311   1.904       .  S
O303       C1465   1.264       .  A
O304        C314   1.263   1_455  A
O305        V311   1.921       .  S
O305        C315   1.269       .  A
O306       C1468   1.270   1_455  A
O307        V312   1.903   1_556  S
O307        C316   1.263       .  A
O308       C1467   1.264       .  A
O309        V312   1.922   1_556  S
O309       C1466   1.270       .  A
O310        C313   1.272       .  A
V311       V1176   2.081   1_455  T
V312       V1175   2.081   1_554  T
C313       O1455   1.263       .  A
C313        C486   1.528       .  S
C314       O1461   1.269       .  A
C314        C446   1.486       .  S
C315       O1460   1.263   1_455  A
C315        C426   1.495       .  S
C316       O1458   1.270       .  A
C316        C457   1.496       .  S
O317        V325   1.896   1_556  S
O317        C903   1.261       .  A
O318        C328   1.258       .  A
O319        V325   1.918   1_556  S
O319        C329   1.268       .  A
O320        C906   1.273       .  A
O321        V326   1.896       .  S
O321        C330   1.263   1_545  A
O322        C905   1.266   1_545  A
O323        V326   1.901       .  S
O323        C904   1.265   1_545  A
O324        C327   1.268   1_545  A
V325        V614   2.078   1_554  T
V326        V613   2.077   1_545  T
C327        O893   1.269       .  A
C327        C366   1.503       .  S
C328        O899   1.271       .  A
C328        C406   1.509       .  S
C329        O898   1.264       .  A
C329        C386   1.519       .  S
C330        O896   1.268       .  A
C330        C337   1.502   1_565  S
C331        C334   1.972       .  S
C331       C1488   2.014   1_455  S
C331        C417   1.793       .  S
C331        C437   1.799       .  S
C332       C1485   1.970       .  S
C332        C335   1.969   1_545  S
C332        C466   1.788       .  S
C332        C477   1.855       .  S
C333       C1484   1.970   1_455  S
C333        C910   2.030   1_545  S
C333        C546   1.719       .  S
C333        C557   1.712       .  S
C334        C909   2.027       .  S
C334        C377   1.844       .  S
C334        C397   1.742       .  S
C335        C912   2.032       .  S
C335        C346   1.772   1_565  S
C335        C357   1.789       .  S
C336       C1483   2.013       .  S
C336        C911   2.018       .  S
C336        C497   1.772       .  S
C336        C526   1.700       .  S
C337        C914   1.413   1_545  A
C337        C342   1.413       .  A
C338        C913   1.394       .  A
C338        C339   1.401       .  A
C338       Br350   1.928       .  S
C339        C916   1.427       .  A
C339       Br354   1.912       .  S
C340        C343   1.542       .  S
C340        C915   1.422   1_545  A
C340        C341   1.418       .  A
C341        C342   1.415       .  A
C341       Br349   1.895       .  S
C342       Br353   1.940       .  S
C343        C344   1.392       .  A
C343        C348   1.385   1_545  A
C344        C345   1.448       .  A
C344       Br931   1.940       .  S
C345        C346   1.496       .  A
C345       Br351   1.965       .  S
C346        C347   1.470   1_545  A
C347        C348   1.459       .  A
C347       Br356   1.902       .  S
C348       Br352   1.951       .  S
Br355       C920   1.934       .  S
C357        C358   1.491   1_565  A
C357        C938   1.486       .  A
C358        C359   1.457       .  A
C358       Br370   1.836       .  S
C359        C360   1.381   1_545  A
C359       Br374   1.956       .  S
C360        C363   1.551       .  S
C360        C937   1.402       .  A
C361        C936   1.401       .  A
C361        C362   1.464       .  A
C361       Br369   1.951       .  S
C362        C933   1.489       .  A
C362       Br373   1.939       .  S
C363        C364   1.424       .  A
C363        C368   1.429       .  A
C364        C365   1.414       .  A
C364       Br375   1.909       .  S
C365        C366   1.404       .  A
C365       Br371   1.933       .  S
C366        C943   1.410       .  A
C367        C942   1.407       .  A
C367        C944   1.424       .  A
C367       Br376   1.930       .  S
C368        C943   1.427       .  A
C368       Br948   1.922       .  S
Br372       C944   1.924       .  S
C377        C954   1.466       .  A
C377        C382   1.563       .  A
C378        C953   1.459       .  A
C378        C379   1.449       .  A
C378       Br390   1.948   1_565  S
C379        C956   1.424       .  A
C379       Br394   1.953       .  S
C380        C383   1.558       .  S
C380        C955   1.426       .  A
C380        C381   1.391       .  A
C381        C382   1.480       .  A
C381       Br389   2.024       .  S
C382       Br393   1.989       .  S
C383        C960   1.422       .  A
C383        C388   1.432       .  A
C384        C959   1.423       .  A
C384        C385   1.396       .  A
C384       Br395   1.929   1_565  S
C385        C962   1.410       .  A
C385       Br391   1.930   1_565  S
C386        C961   1.414       .  A
C386        C387   1.422       .  A
C387        C388   1.431       .  A
C387       Br396   1.939       .  S
C388       Br392   1.908       .  S
C397        C398   1.454       .  A
C397        C978   1.503       .  A
C398        C399   1.444       .  A
C398       Br410   1.930       .  S
C399        C400   1.401       .  A
C399       Br414   1.937       .  S
C400        C403   1.518       .  S
C400        C977   1.390       .  A
C401        C976   1.397       .  A
C401        C402   1.467       .  A
C401       Br409   1.951       .  S
C402        C973   1.503       .  A
C402       Br413   1.952       .  S
C403        C404   1.409       .  A
C403        C984   1.417       .  A
C404        C405   1.413       .  A
C404       Br415   1.926       .  S
C405        C406   1.429       .  A
C405       Br411   1.940       .  S
C406        C983   1.417       .  A
C407        C982   1.421   1_545  A
C407        C408   1.412       .  A
C407       Br416   1.942       .  S
C408        C979   1.414       .  A
C408       Br412   1.913       .  S
C417       C1570   1.487   1_455  A
C417        C422   1.482       .  A
C418       C1569   1.489       .  A
C418        C419   1.463       .  A
C418       Br430   1.949       .  S
C419       C1572   1.400       .  A
C419       Br434   1.942       .  S
C420        C423   1.528       .  S
C420       C1571   1.398   1_455  A
C420        C421   1.380       .  A
C421        C422   1.448       .  A
C421       Br429   1.981       .  S
C422       Br433   1.842       .  S
C423       C1576   1.422   1_455  A
C423        C428   1.427       .  A
C424       C1575   1.423       .  A
C424        C425   1.411       .  A
C424       Br435   1.925       .  S
C425       C1578   1.410       .  A
C425       Br431   1.932       .  S
C426       C1577   1.408   1_455  A
C426        C427   1.409       .  A
C427        C428   1.417       .  A
C427       Br436   1.930       .  S
C428       Br432   1.925       .  S
C437       C1590   1.476   1_455  A
C437        C442   1.454       .  A
C438       C1589   1.477       .  A
C438        C439   1.454       .  A
C438       Br450   1.904       .  S
C439       C1592   1.400       .  A
C439       Br454   1.953       .  S
C440        C443   1.550       .  S
C440       C1591   1.400   1_455  A
C440        C441   1.408       .  A
C441        C442   1.438       .  A
C441       Br449   1.943       .  S
C442       Br453   1.947       .  S
C443        C444   1.429       .  A
C443       C1600   1.431       .  A
C444        C445   1.408   1_455  A
C444       Br455   1.897       .  S
C445        C446   1.396       .  A
C445       Br451   1.932       .  S
C446       C1599   1.405   1_655  A
C447       C1598   1.405       .  A
C447        C448   1.418       .  A
C447       Br456   1.927       .  S
C448       C1595   1.430       .  A
C448       Br452   1.921       .  S
C457        C458   1.412       .  A
C457       C1614   1.406       .  A
C458        C459   1.416       .  A
C458       Br470   1.934       .  S
C459        C460   1.423       .  A
C459       Br474   1.929       .  S
C460        C463   1.534       .  S
C460       C1613   1.432       .  A
C461       C1612   1.433   1_455  A
C461        C462   1.415       .  A
C461       Br469   1.925       .  S
C462       C1609   1.405   1_455  A
C462       Br473   1.939       .  S
C463        C464   1.408       .  A
C463       C1620   1.405       .  A
C464        C465   1.465       .  A
C464       Br475   1.947       .  S
C465        C466   1.517       .  A
C465       Br471   1.936       .  S
C466       C1619   1.479       .  A
C467       C1618   1.479   1_455  A
C467        C468   1.447       .  A
C467       Br476   1.931       .  S
C468       C1615   1.405   1_455  A
C468       Br472   1.971       .  S
C477       C1630   1.502       .  A
C477        C482   1.508       .  A
C478       C1629   1.499       .  A
C478        C479   1.463       .  A
C478       Br490   1.933   1_455  S
C479       C1632   1.394       .  A
C479       Br494   1.951       .  S
C480        C483   1.559       .  S
C480       C1631   1.395       .  A
C480        C481   1.386       .  A
C481        C482   1.473       .  A
C481       Br489   1.963       .  S
C482       Br493   1.835       .  S
C483        C484   1.422       .  A
C483       C1640   1.415       .  A
C484        C485   1.419       .  A
C484       Br495   1.912       .  S
C485        C486   1.420       .  A
C485       Br491   1.935       .  S
C486       C1639   1.427       .  A
C487       C1638   1.426       .  A
C487        C488   1.423       .  A
C487       Br496   1.941       .  S
C488       C1635   1.415       .  A
C488       Br492   1.897       .  S
C497        C498   1.469       .  A
C497        C502   1.499       .  A
C498        C499   1.442       .  A
C498       Br510   1.874       .  S
C499        C500   1.389       .  A
C499       Br514   1.945       .  S
C500        C503   1.530       .  S
C500        C501   1.393       .  A
C501        C502   1.466       .  A
C501       Br509   1.978       .  S
C502       Br513   1.887       .  S
C503        C504   1.416       .  A
C503        C508   1.418       .  A
C504        C505   1.410       .  A
C504       Br515   1.909       .  S
C505        C506   1.414       .  A
C505       Br511   1.940       .  S
C506        C507   1.417       .  A
C507        C508   1.424       .  A
C507       Br516   1.930       .  S
C508       Br512   1.920       .  S
C517        C518   1.401       .  A
C517        C522   1.397       .  A
C518        C519   1.421       .  A
C518       Br530   1.938       .  S
C519        C520   1.451       .  A
C519       Br534   1.941       .  S
C520        C523   1.575       .  S
C520        C521   1.437       .  A
C521        C522   1.419       .  A
C521       Br529   1.895       .  S
C522       Br533   1.943       .  S
C523        C524   1.435       .  A
C523        C528   1.411       .  A
C524        C525   1.446       .  A
C524       Br535   1.939       .  S
C525        C526   1.419       .  A
C525       Br531   1.849       .  S
C526        C527   1.488       .  A
C527        C528   1.448       .  A
C527       Br536   1.899       .  S
C528       Br532   1.980       .  S
C537        C538   1.430       .  A
C537        C542   1.424       .  A
C538        C539   1.412       .  A
C538       Br550   1.940       .  S
C539        C540   1.405       .  A
C539       Br554   1.922       .  S
C540        C543   1.511       .  S
C540        C541   1.409       .  A
C541        C542   1.412       .  A
C541       Br549   1.924       .  S
C542       Br553   1.937       .  S
C543        C544   1.376       .  A
C543        C548   1.385       .  A
C544        C545   1.438       .  A
C544       Br555   1.956       .  S
C545        C546   1.497       .  A
C545       Br551   1.927       .  S
C546        C547   1.472       .  A
C547        C548   1.458       .  A
C547       Br556   1.886       .  S
C548       Br552   1.971       .  S
C557        C558   1.497       .  A
C557        C562   1.394       .  A
C558        C559   1.451       .  A
C558       Br570   1.907       .  S
C559        C560   1.406       .  A
C559       Br574   1.963       .  S
C560        C563   1.573       .  S
C560        C561   1.427       .  A
C561        C562   1.461       .  A
C561       Br569   1.941       .  S
C562       Br573   1.825       .  S
C563        C564   1.435       .  A
C563        C568   1.447       .  A
C564        C565   1.426       .  A
C564       Br575   1.906       .  S
C565        C566   1.405       .  A
C565       Br571   1.934       .  S
C566        C567   1.394       .  A
C567        C568   1.415       .  A
C567       Br576   1.954       .  S
C568       Br572   1.900       .  S
O577        V585   1.908       .  S
O577        C587   1.266       .  A
O578        V873   1.905   1_554  S
O578        C588   1.267       .  A
O579        V585   1.880       .  S
O579        C589   1.258       .  A
O580        V873   1.895   1_554  S
O580        C590   1.263       .  A
O581        V586   1.933   1_554  S
O581        C590   1.273       .  A
O582        V874   1.921       .  S
O582        C589   1.271       .  A
O583        V586   1.910   1_554  S
O583        C588   1.265       .  A
O584        V874   1.902       .  S
O584        C587   1.265       .  A
V585        O866   1.905       .  S
V585        O868   1.897       .  S
V585        V874   2.074       .  T
V586        O870   1.922       .  S
V586        O872   1.901       .  S
V586        V873   2.074       .  T
C587        C805   1.486       .  S
C588        C854   1.494       .  S
C589        C825   1.503       .  S
C590        C794   1.516       .  S
O591        V599   1.895   1_554  S
O591       C1753   1.262       .  A
O592        V887   1.893       .  S
O592        C602   1.261   1_455  A
O593        V599   1.914   1_554  S
O593        C603   1.267   1_455  A
O594        V887   1.912       .  S
O594       C1756   1.269   1_455  A
O595        V600   1.904       .  S
O595        C604   1.263       .  A
O596        V888   1.904       .  S
O596       C1755   1.266       .  A
O597        V600   1.915       .  S
O597       C1754   1.269       .  A
O598        V888   1.926       .  S
O598        C601   1.271       .  A
V599        O880   1.894       .  S
V599        O882   1.908       .  S
V599       V2040   2.082   1_456  T
V600        O884   1.905       .  S
V600        O886   1.923       .  S
V600       V2039   2.082       .  T
C601       O1743   1.261       .  A
C601        C774   1.520       .  S
C602       O1749   1.268       .  A
C602        C734   1.477       .  S
C603       O1748   1.266       .  A
C603        C714   1.495   1_655  S
C604       O1746   1.269       .  A
C604        C745   1.494       .  S
O605        V613   1.921       .  S
O606        V901   1.911       .  S
O606        C616   1.265       .  A
O607        V613   1.916       .  S
O607        C617   1.268       .  A
O608        V901   1.913       .  S
O609        V614   1.910   1_554  S
O609        C618   1.262       .  A
O610        V902   1.897       .  S
O611        V614   1.922   1_554  S
O612        V902   1.922       .  S
O612        C615   1.271       .  A
V613        O894   1.909       .  S
V613        O896   1.914       .  S
V614        O898   1.901       .  S
V614        O900   1.923       .  S
C615        C654   1.488       .  S
C616        C694   1.508       .  S
C617        C674   1.514       .  S
C618        C625   1.495       .  S
C619        C622   1.972       .  S
C619       C1776   2.017   1_455  S
C619        C705   1.801       .  S
C619        C725   1.794   1_455  S
C620       C1773   1.966       .  S
C620        C623   1.972       .  S
C620        C754   1.787       .  S
C620        C765   1.864       .  S
C621       C1772   1.965       .  S
C621        C834   1.710       .  S
C621        C845   1.694       .  S
C622        C665   1.843       .  S
C622        C685   1.749   1_565  S
C623        C634   1.761       .  S
C623        C645   1.798       .  S
C624       C1771   2.017       .  S
C624        C785   1.762       .  S
C624        C814   1.701       .  S
C625        C630   1.407       .  A
C626        C627   1.415       .  A
C626       Br638   1.933       .  S
C627       Br642   1.922       .  S
C628        C631   1.538       .  S
C628        C629   1.434       .  A
C629        C630   1.424       .  A
C629       Br637   1.931       .  S
C630       Br641   1.926       .  S
C631        C632   1.408       .  A
C631        C636   1.407       .  A
C632        C633   1.435       .  A
C633        C634   1.469       .  A
C633       Br639   1.954       .  S
C634        C635   1.475       .  A
C635        C636   1.466       .  A
C635       Br644   1.932       .  S
C636       Br640   1.967       .  S
C645        C646   1.492       .  A
C646        C647   1.458       .  A
C646       Br658   1.828       .  S
C647        C648   1.380       .  A
C647       Br662   1.961       .  S
C648        C651   1.543       .  S
C649        C650   1.461       .  A
C649       Br657   1.950       .  S
C650       Br661   1.923       .  S
C651        C652   1.417       .  A
C651        C656   1.431       .  A
C652        C653   1.404       .  A
C652       Br663   1.890       .  S
C653        C654   1.401       .  A
C653       Br659   1.937       .  S
C655       Br664   1.930       .  S
C665        C670   1.562       .  A
C666        C667   1.449       .  A
C666       Br678   1.954       .  S
C667       Br682   1.956       .  S
C668        C671   1.556       .  S
C668        C669   1.391       .  A
C669        C670   1.483       .  A
C669       Br677   2.029       .  S
C670       Br681   1.975       .  S
C671        C676   1.434       .  A
C672        C673   1.398       .  A
C672       Br683   1.930       .  S
C673       Br679   1.932       .  S
C674        C675   1.419       .  A
C675        C676   1.428       .  A
C675       Br684   1.941       .  S
C676       Br680   1.904       .  S
C685        C686   1.458       .  A
C686        C687   1.444   1_545  A
C686       Br698   1.937       .  S
C687        C688   1.401   1_565  A
C687       Br702   1.944       .  S
C688        C691   1.522       .  S
C689        C690   1.462       .  A
C689       Br697   1.955       .  S
C690       Br701   1.944       .  S
C691        C692   1.415   1_545  A
C692        C693   1.417       .  A
C692       Br703   1.921       .  S
C693        C694   1.423       .  A
C693       Br699   1.932       .  S
C695        C696   1.413       .  A
C695       Br704   1.939       .  S
C696       Br700   1.912       .  S
C705       C1858   1.487   1_455  A
C705        C710   1.484       .  A
C706       C1857   1.484       .  A
C706        C707   1.459       .  A
C706       Br718   1.956       .  S
C707       C1860   1.403       .  A
C707       Br722   1.941       .  S
C708        C711   1.535   1_455  S
C708       C1859   1.403   1_455  A
C708        C709   1.385       .  A
C709        C710   1.453       .  A
C709       Br717   1.979       .  S
C710       Br721   1.847       .  S
C711       C1864   1.427       .  A
C711        C716   1.427   1_655  A
C712       C1863   1.427       .  A
C712        C713   1.413       .  A
C712       Br723   1.921       .  S
C713       C1866   1.406       .  A
C713       Br719   1.936       .  S
C714       C1865   1.405   1_455  A
C714        C715   1.409       .  A
C715        C716   1.419       .  A
C715       Br724   1.933       .  S
C716       Br720   1.923       .  S
C725       C1878   1.473       .  A
C725        C730   1.453   1_655  A
C726       C1877   1.473       .  A
C726        C727   1.450       .  A
C726       Br738   1.904       .  S
C727       C1880   1.399       .  A
C727       Br742   1.946       .  S
C728        C731   1.547   1_455  S
C728       C1879   1.400   1_455  A
C728        C729   1.408       .  A
C729        C730   1.435       .  A
C729       Br737   1.944       .  S
C730       Br741   1.948   1_455  S
C731        C732   1.431       .  A
C731       C1888   1.431       .  A
C732        C733   1.404       .  A
C732       Br743   1.898   1_655  S
C733        C734   1.393       .  A
C733       Br739   1.933       .  S
C734       C1887   1.404       .  A
C735       C1886   1.404       .  A
C735        C736   1.415       .  A
C735       Br744   1.926       .  S
C736       C1883   1.430       .  A
C736       Br740   1.920       .  S
C745        C746   1.414       .  A
C745       C1902   1.405       .  A
C746        C747   1.416       .  A
C746       Br758   1.932       .  S
C747        C748   1.420       .  A
C747       Br762   1.929       .  S
C748        C751   1.529       .  S
C748       C1901   1.430       .  A
C749       C1900   1.429   1_455  A
C749        C750   1.412       .  A
C749       Br757   1.929       .  S
C750       C1897   1.406   1_455  A
C750       Br761   1.936       .  S
C751        C752   1.403       .  A
C751       C1908   1.399       .  A
C752        C753   1.464       .  A
C752       Br763   1.933       .  S
C753        C754   1.512       .  A
C753       Br759   1.939       .  S
C754       C1907   1.480       .  A
C755       C1906   1.481       .  A
C755        C756   1.447       .  A
C755       Br764   1.947       .  S
C756       C1903   1.398   1_455  A
C756       Br760   1.988       .  S
C765       C1918   1.505       .  A
C765        C770   1.510       .  A
C766       C1917   1.508       .  A
C766        C767   1.463       .  A
C766       Br778   1.962   1_455  S
C767       C1920   1.400       .  A
C767       Br782   1.958       .  S
C768        C771   1.556       .  S
C768       C1919   1.398       .  A
C768        C769   1.392       .  A
C769        C770   1.475       .  A
C769       Br777   1.968       .  S
C770       Br781   1.841       .  S
C771        C772   1.422       .  A
C771       C1928   1.415       .  A
C772        C773   1.413       .  A
C772       Br783   1.916       .  S
C773        C774   1.417       .  A
C773       Br779   1.934       .  S
C774       C1927   1.428       .  A
C775       C1926   1.424       .  A
C775        C776   1.418       .  A
C775       Br784   1.943       .  S
C776       C1923   1.414       .  A
C776       Br780   1.899       .  S
C785        C786   1.473       .  A
C785        C790   1.484       .  A
C786        C787   1.442       .  A
C786       Br798   1.871       .  S
C787        C788   1.390       .  A
C787       Br802   1.949       .  S
C788        C791   1.533       .  S
C788        C789   1.395       .  A
C789        C790   1.463       .  A
C789       Br797   1.959       .  S
C790       Br801   1.882       .  S
C791        C792   1.414       .  A
C791        C796   1.419       .  A
C792        C793   1.414       .  A
C792       Br803   1.914       .  S
C793        C794   1.422       .  A
C793       Br799   1.943       .  S
C794        C795   1.420       .  A
C795        C796   1.424       .  A
C795       Br804   1.932       .  S
C796       Br800   1.922       .  S
C805        C806   1.403       .  A
C805        C810   1.396       .  A
C806        C807   1.418       .  A
C806       Br818   1.939       .  S
C807        C808   1.450       .  A
C807       Br822   1.946       .  S
C808        C811   1.559       .  S
C808        C809   1.426       .  A
C809        C810   1.412       .  A
C809       Br817   1.890       .  S
C810       Br821   1.939       .  S
C811        C812   1.432       .  A
C811        C816   1.402       .  A
C812        C813   1.444       .  A
C812       Br823   1.949       .  S
C813        C814   1.418       .  A
C813       Br819   1.852       .  S
C814        C815   1.493       .  A
C815        C816   1.443       .  A
C815       Br824   1.905       .  S
C816       Br820   1.983       .  S
C825        C826   1.427       .  A
C825        C830   1.421       .  A
C826        C827   1.406       .  A
C826       Br838   1.938       .  S
C827        C828   1.402       .  A
C827       Br842   1.919       .  S
C828        C831   1.507       .  S
C828        C829   1.410       .  A
C829        C830   1.414       .  A
C829       Br837   1.923       .  S
C830       Br841   1.933       .  S
C831        C832   1.375       .  A
C831        C836   1.384       .  A
C832        C833   1.439       .  A
C832       Br843   1.957       .  S
C833        C834   1.500       .  A
C833       Br839   1.931       .  S
C834        C835   1.465       .  A
C835        C836   1.454       .  A
C835       Br844   1.888       .  S
C836       Br840   1.973       .  S
C845        C846   1.498       .  A
C845        C850   1.391       .  A
C846        C847   1.443       .  A
C846       Br858   1.916       .  S
C847        C848   1.401       .  A
C847       Br862   1.960       .  S
C848        C851   1.555       .  S
C848        C849   1.425       .  A
C849        C850   1.453       .  A
C849       Br857   1.945       .  S
C850       Br861   1.829       .  S
C851        C852   1.429       .  A
C851        C856   1.449       .  A
C852        C853   1.425       .  A
C852       Br863   1.930       .  S
C853        C854   1.410       .  A
C853       Br859   1.928       .  S
C854        C855   1.397       .  A
C855        C856   1.411       .  A
C855       Br864   1.960       .  S
C856       Br860   1.916       .  S
O865        V873   1.910       .  S
O865        C875   1.266       .  A
O866        C876   1.267       .  A
O867        V873   1.881       .  S
O867        C877   1.257       .  A
O868        C878   1.263       .  A
O869        V874   1.932       .  S
O869        C878   1.272       .  A
O870        C877   1.271       .  A
O871        V874   1.913       .  S
O871        C876   1.265       .  A
O872        C875   1.265       .  A
C875       C1093   1.486       .  S
C876       C1142   1.494       .  S
C877       C1113   1.504       .  S
C878       C1082   1.517       .  S
O879        V887   1.894       .  S
O879       C2041   1.261       .  A
O880        C890   1.261   1_455  A
O881        V887   1.917       .  S
O881        C891   1.268   1_455  A
O882       C2044   1.268   1_455  A
O883        V888   1.908   1_556  S
O883        C892   1.264       .  A
O884       C2043   1.266       .  A
O885        V888   1.918   1_556  S
O885       C2042   1.269       .  A
O886        C889   1.270       .  A
V887       V1752   2.082   1_455  T
V888       V1751   2.082   1_554  T
C889       O2031   1.262       .  A
C889       C1062   1.517       .  S
C890       O2037   1.268       .  A
C890       C1022   1.478       .  S
C891       O2036   1.265       .  A
C891       C1002   1.497   1_655  S
C892       O2034   1.268       .  A
C892       C1033   1.494       .  S
O893        V901   1.923   1_556  S
O894        C904   1.265       .  A
O895        V901   1.913   1_556  S
O895        C905   1.267       .  A
O897        V902   1.908       .  S
O897        C906   1.261       .  A
O899        V902   1.921       .  S
O900        C903   1.271       .  A
C903        C942   1.490       .  S
C904        C982   1.511       .  S
C905        C962   1.515       .  S
C906        C913   1.492       .  S
C907        C910   1.970       .  S
C907       C2064   2.017   1_455  S
C907        C993   1.798       .  S
C907       C1013   1.798   1_455  S
C908       C2061   1.966       .  S
C908        C911   1.972       .  S
C908       C1042   1.787       .  S
C908       C1053   1.865       .  S
C909       C2060   1.966       .  S
C909       C1122   1.712       .  S
C909       C1133   1.694       .  S
C910        C953   1.841       .  S
C910        C973   1.750   1_565  S
C911        C922   1.759       .  S
C911        C933   1.797       .  S
C912       C2059   2.017       .  S
C912       C1073   1.763       .  S
C912       C1102   1.699       .  S
C913        C918   1.407       .  A
C914        C915   1.415       .  A
C914       Br926   1.933       .  S
C915       Br930   1.920       .  S
C916        C919   1.536       .  S
C916        C917   1.434       .  A
C917        C918   1.423       .  A
C917       Br925   1.933       .  S
C918       Br929   1.927       .  S
C919        C920   1.407       .  A
C919        C924   1.404       .  A
C920        C921   1.435       .  A
C921        C922   1.469       .  A
C921       Br927   1.952       .  S
C922        C923   1.473       .  A
C923        C924   1.465       .  A
C923       Br932   1.921       .  S
C924       Br928   1.967       .  S
C933        C934   1.491       .  A
C934        C935   1.456       .  A
C934       Br946   1.829       .  S
C935        C936   1.379       .  A
C935       Br950   1.961       .  S
C936        C939   1.541       .  S
C937        C938   1.462       .  A
C937       Br945   1.949       .  S
C938       Br949   1.924       .  S
C939        C940   1.414       .  A
C939        C944   1.431       .  A
C940        C941   1.403       .  A
C940       Br951   1.890       .  S
C941        C942   1.401       .  A
C941       Br947   1.934       .  S
C943       Br952   1.930       .  S
C953        C958   1.563       .  A
C954        C955   1.451       .  A
C954       Br966   1.954       .  S
C955       Br970   1.960       .  S
C956        C959   1.555       .  S
C956        C957   1.391       .  A
C957        C958   1.482       .  A
C957       Br965   2.029       .  S
C958       Br969   1.977       .  S
C959        C964   1.432       .  A
C960        C961   1.399       .  A
C960       Br971   1.929       .  S
C961       Br967   1.932       .  S
C962        C963   1.421       .  A
C963        C964   1.429       .  A
C963       Br972   1.941       .  S
C964       Br968   1.904       .  S
C973        C974   1.458       .  A
C974        C975   1.445   1_545  A
C974       Br986   1.937       .  S
C975        C976   1.401   1_565  A
C975       Br990   1.943       .  S
C976        C979   1.523       .  S
C977        C978   1.462       .  A
C977       Br985   1.955       .  S
C978       Br989   1.944       .  S
C979        C980   1.413   1_545  A
C980        C981   1.416       .  A
C980       Br991   1.921       .  S
C981        C982   1.424       .  A
C981       Br987   1.935       .  S
C983        C984   1.413       .  A
C983       Br992   1.940       .  S
C984       Br988   1.913       .  S
C993       C2146   1.486   1_455  A
C993        C998   1.484       .  A
C994       C2145   1.486       .  A
C994        C995   1.460       .  A
C994      Br1006   1.956       .  S
C995       C2148   1.403       .  A
C995      Br1010   1.943       .  S
C996        C999   1.533   1_455  S
C996       C2147   1.402   1_455  A
C996        C997   1.384       .  A
C997        C998   1.452       .  A
C997      Br1005   1.980       .  S
C998      Br1009   1.844       .  S
C999       C2152   1.426       .  A
C999       C1004   1.426   1_655  A
C1000      C2151   1.426       .  A
C1000      C1001   1.414       .  A
C1000     Br1011   1.923       .  S
C1001      C2154   1.408       .  A
C1001     Br1007   1.933       .  S
C1002      C2153   1.408   1_455  A
C1002      C1003   1.410       .  A
C1003      C1004   1.418       .  A
C1003     Br1012   1.932       .  S
C1004     Br1008   1.923       .  S
C1013      C2166   1.474       .  A
C1013      C1018   1.455   1_655  A
C1014      C2165   1.475       .  A
C1014      C1015   1.452       .  A
C1014     Br1026   1.903       .  S
C1015      C2168   1.398       .  A
C1015     Br1030   1.945       .  S
C1016      C1019   1.551       .  S
C1016      C2167   1.400       .  A
C1016      C1017   1.409   1_655  A
C1017      C1018   1.437       .  A
C1017     Br1025   1.943       .  S
C1018     Br1029   1.949   1_455  S
C1019      C1020   1.434       .  A
C1019      C2176   1.432       .  A
C1020      C1021   1.407       .  A
C1020     Br1031   1.902       .  S
C1021      C1022   1.394       .  A
C1021     Br1027   1.934       .  S
C1022      C2175   1.403       .  A
C1023      C2174   1.403       .  A
C1023      C1024   1.413       .  A
C1023     Br1032   1.927       .  S
C1024      C2171   1.430       .  A
C1024     Br1028   1.919       .  S
C1033      C1034   1.413       .  A
C1033      C2190   1.405       .  A
C1034      C1035   1.417       .  A
C1034     Br1046   1.932       .  S
C1035      C1036   1.421       .  A
C1035     Br1050   1.929       .  S
C1036      C1039   1.530       .  S
C1036      C2189   1.430       .  A
C1037      C2188   1.429   1_455  A
C1037      C1038   1.411       .  A
C1037     Br1045   1.930       .  S
C1038      C2185   1.407   1_455  A
C1038     Br1049   1.935       .  S
C1039      C1040   1.405       .  A
C1039      C2196   1.400       .  A
C1040      C1041   1.464       .  A
C1040     Br1051   1.936       .  S
C1041      C1042   1.512       .  A
C1041     Br1047   1.939       .  S
C1042      C2195   1.480       .  A
C1043      C2194   1.480       .  A
C1043      C1044   1.447       .  A
C1043     Br1052   1.946       .  S
C1044      C2191   1.396   1_455  A
C1044     Br1048   1.989       .  S
C1053      C2206   1.507       .  A
C1053      C1058   1.511       .  A
C1054      C2205   1.510       .  A
C1054      C1055   1.463       .  A
C1054     Br1066   1.966   1_455  S
C1055      C2208   1.400       .  A
C1055     Br1070   1.960       .  S
C1056      C1059   1.557       .  S
C1056      C2207   1.399       .  A
C1056      C1057   1.392       .  A
C1057      C1058   1.475       .  A
C1057     Br1065   1.965       .  S
C1058     Br1069   1.845       .  S
C1059      C1060   1.424       .  A
C1059      C2216   1.415       .  A
C1060      C1061   1.414       .  A
C1060     Br1071   1.915       .  S
C1061      C1062   1.417       .  A
C1061     Br1067   1.935       .  S
C1062      C2215   1.425       .  A
C1063      C2214   1.424       .  A
C1063      C1064   1.419       .  A
C1063     Br1072   1.944       .  S
C1064      C2211   1.415       .  A
C1064     Br1068   1.899       .  S
C1073      C1074   1.474       .  A
C1073      C1078   1.484       .  A
C1074      C1075   1.442       .  A
C1074     Br1086   1.872       .  S
C1075      C1076   1.391       .  A
C1075     Br1090   1.948       .  S
C1076      C1079   1.535       .  S
C1076      C1077   1.395       .  A
C1077      C1078   1.464       .  A
C1077     Br1085   1.958       .  S
C1078     Br1089   1.884       .  S
C1079      C1080   1.415       .  A
C1079      C1084   1.420       .  A
C1080      C1081   1.415       .  A
C1080     Br1091   1.914       .  S
C1081      C1082   1.422       .  A
C1081     Br1087   1.942       .  S
C1082      C1083   1.420       .  A
C1083      C1084   1.424       .  A
C1083     Br1092   1.932       .  S
C1084     Br1088   1.921       .  S
C1093      C1094   1.403       .  A
C1093      C1098   1.397       .  A
C1094      C1095   1.418       .  A
C1094     Br1106   1.938       .  S
C1095      C1096   1.450       .  A
C1095     Br1110   1.945       .  S
C1096      C1099   1.558       .  S
C1096      C1097   1.425       .  A
C1097      C1098   1.411       .  A
C1097     Br1105   1.889       .  S
C1098     Br1109   1.938       .  S
C1099      C1100   1.432       .  A
C1099      C1104   1.402       .  A
C1100      C1101   1.445       .  A
C1100     Br1111   1.949       .  S
C1101      C1102   1.419       .  A
C1101     Br1107   1.856       .  S
C1102      C1103   1.491       .  A
C1103      C1104   1.442       .  A
C1103     Br1112   1.903       .  S
C1104     Br1108   1.982       .  S
C1113      C1114   1.428       .  A
C1113      C1118   1.420       .  A
C1114      C1115   1.408       .  A
C1114     Br1126   1.939       .  S
C1115      C1116   1.403       .  A
C1115     Br1130   1.919       .  S
C1116      C1119   1.508       .  S
C1116      C1117   1.409       .  A
C1117      C1118   1.413       .  A
C1117     Br1125   1.922       .  S
C1118     Br1129   1.933       .  S
C1119      C1120   1.375       .  A
C1119      C1124   1.384       .  A
C1120      C1121   1.439       .  A
C1120     Br1131   1.958       .  S
C1121      C1122   1.500       .  A
C1121     Br1127   1.931       .  S
C1122      C1123   1.465       .  A
C1123      C1124   1.455       .  A
C1123     Br1132   1.889       .  S
C1124     Br1128   1.973       .  S
C1133      C1134   1.498       .  A
C1133      C1138   1.391       .  A
C1134      C1135   1.443       .  A
C1134     Br1146   1.918       .  S
C1135      C1136   1.401       .  A
C1135     Br1150   1.961       .  S
C1136      C1139   1.555       .  S
C1136      C1137   1.426       .  A
C1137      C1138   1.453       .  A
C1137     Br1145   1.946       .  S
C1138     Br1149   1.829       .  S
C1139      C1140   1.429       .  A
C1139      C1144   1.449       .  A
C1140      C1141   1.425       .  A
C1140     Br1151   1.931       .  S
C1141      C1142   1.410       .  A
C1141     Br1147   1.926       .  S
C1142      C1143   1.396       .  A
C1143      C1144   1.411       .  A
C1143     Br1152   1.960       .  S
C1144     Br1148   1.916       .  S
O1153      V1161   1.915       .  S
O1153      C1163   1.267       .  A
O1154      V1449   1.909   1_554  S
O1154      C1164   1.268       .  A
O1155      V1161   1.896       .  S
O1155      C1165   1.262       .  A
O1156      V1449   1.905   1_554  S
O1156      C1166   1.266       .  A
O1157      V1162   1.930   1_554  S
O1157      C1166   1.272       .  A
O1158      V1450   1.913       .  S
O1158      C1165   1.268       .  A
O1159      V1162   1.912   1_554  S
O1159      C1164   1.265       .  A
O1160      V1450   1.909       .  S
O1160      C1163   1.267       .  A
V1161      O1442   1.910       .  S
V1161      O1444   1.907       .  S
V1161      V1450   2.078       .  T
V1162      O1446   1.917       .  S
V1162      O1448   1.908       .  S
V1162      V1449   2.078       .  T
C1163      C1381   1.495       .  S
C1164      C1430   1.496       .  S
C1165      C1401   1.514       .  S
C1166      C1370   1.513       .  S
O1167      V1175   1.897   1_554  S
O1168      V1463   1.899       .  S
O1168      C1178   1.262       .  A
O1169      V1175   1.920   1_554  S
O1169      C1179   1.269       .  A
O1170      V1463   1.916       .  S
O1171      V1176   1.900       .  S
O1171      C1180   1.262       .  A
O1172      V1464   1.899       .  S
O1173      V1176   1.924       .  S
O1174      V1464   1.922       .  S
O1174      C1177   1.270   1_655  A
V1175      O1456   1.899       .  S
V1175      O1458   1.914       .  S
V1176      O1460   1.897       .  S
V1176      O1462   1.929       .  S
C1177      C1350   1.526       .  S
C1178      C1310   1.486       .  S
C1179      C1290   1.496       .  S
C1180      C1321   1.500       .  S
O1181      V1189   1.899       .  S
O1181      C1767   1.262       .  A
O1182      V1477   1.895       .  S
O1182      C1192   1.260       .  A
O1183      V1189   1.923       .  S
O1183      C1193   1.270       .  A
O1184      V1477   1.921       .  S
O1184      C1770   1.273       .  A
O1185      V1190   1.900   1_554  S
O1185      C1194   1.264   1_545  A
O1186      V1478   1.899       .  S
O1186      C1769   1.263   1_545  A
O1187      V1190   1.903   1_554  S
O1187      C1768   1.265   1_545  A
O1188      V1478   1.916       .  S
O1188      C1191   1.267   1_545  A
V1189      O1470   1.895       .  S
V1189      O1472   1.920       .  S
V1189      V2054   2.077       .  T
V1190      O1474   1.904       .  S
V1190      O1476   1.916       .  S
V1190      V2053   2.077   1_546  T
C1191      O1757   1.267       .  A
C1191      C1230   1.495       .  S
C1192      O1763   1.270       .  A
C1192      C1270   1.509       .  S
C1193      O1762   1.263       .  A
C1193      C1250   1.523       .  S
C1194      O1760   1.269       .  A
C1194      C1201   1.510   1_565  S
C1195      C1198   1.975       .  S
C1195      C1281   1.799       .  S
C1195      C1301   1.799       .  S
C1196      C1199   1.969   1_545  S
C1196      C1330   1.791       .  S
C1196      C1341   1.859       .  S
C1197      C1774   2.032   1_545  S
C1197      C1410   1.723       .  S
C1197      C1421   1.721       .  S
C1198      C1773   2.027       .  S
C1198      C1241   1.844       .  S
C1198      C1261   1.743       .  S
C1199      C1776   2.034       .  S
C1199      C1210   1.766   1_565  S
C1199      C1221   1.790       .  S
C1200      C1775   2.019       .  S
C1200      C1361   1.778       .  S
C1200      C1390   1.701       .  S
C1201      C1778   1.417   1_545  A
C1201      C1206   1.417       .  A
C1202      C1777   1.394       .  A
C1202      C1203   1.399       .  A
C1202     Br1214   1.926       .  S
C1203      C1780   1.425       .  A
C1203     Br1218   1.913       .  S
C1204      C1207   1.540       .  S
C1204      C1779   1.421   1_545  A
C1204      C1205   1.416       .  A
C1205      C1206   1.417       .  A
C1205     Br1213   1.898       .  S
C1206     Br1217   1.939       .  S
C1207      C1208   1.394       .  A
C1207      C1212   1.387   1_545  A
C1208      C1209   1.443       .  A
C1208     Br1795   1.943       .  S
C1209      C1210   1.490       .  A
C1209     Br1215   1.964       .  S
C1210      C1211   1.467   1_545  A
C1211      C1212   1.455       .  A
C1211     Br1220   1.888       .  S
C1212     Br1216   1.946       .  S
Br1219     C1784   1.933       .  S
C1221      C1222   1.494   1_565  A
C1221      C1802   1.486       .  A
C1222      C1223   1.456       .  A
C1222     Br1234   1.839       .  S
C1223      C1224   1.378   1_545  A
C1223     Br1238   1.959       .  S
C1224      C1227   1.544       .  S
C1224      C1801   1.397       .  A
C1225      C1800   1.400       .  A
C1225      C1226   1.461       .  A
C1225     Br1233   1.945       .  S
C1226      C1797   1.485       .  A
C1226     Br1237   1.931       .  S
C1227      C1228   1.421       .  A
C1227      C1232   1.427       .  A
C1228      C1229   1.410       .  A
C1228     Br1239   1.906       .  S
C1229      C1230   1.403       .  A
C1229     Br1235   1.933       .  S
C1230      C1807   1.409       .  A
C1231      C1806   1.406       .  A
C1231      C1808   1.420       .  A
C1231     Br1240   1.929       .  S
C1232      C1807   1.424       .  A
C1232     Br1812   1.922       .  S
Br1236     C1808   1.924       .  S
C1241      C1818   1.467       .  A
C1241      C1246   1.560       .  A
C1242      C1817   1.461       .  A
C1242      C1243   1.450       .  A
C1242     Br1254   1.949   1_565  S
C1243      C1820   1.425       .  A
C1243     Br1258   1.955       .  S
C1244      C1247   1.558       .  S
C1244      C1819   1.423       .  A
C1244      C1245   1.389       .  A
C1245      C1246   1.479       .  A
C1245     Br1253   2.022       .  S
C1246     Br1257   1.985       .  S
C1247      C1824   1.422       .  A
C1247      C1252   1.430       .  A
C1248      C1823   1.424       .  A
C1248      C1249   1.399       .  A
C1248     Br1259   1.930   1_565  S
C1249      C1826   1.413       .  A
C1249     Br1255   1.934   1_565  S
C1250      C1825   1.417       .  A
C1250      C1251   1.423       .  A
C1251      C1252   1.432       .  A
C1251     Br1260   1.939       .  S
C1252     Br1256   1.907       .  S
C1261      C1262   1.453       .  A
C1261      C1842   1.503       .  A
C1262      C1263   1.444       .  A
C1262     Br1274   1.929       .  S
C1263      C1264   1.401       .  A
C1263     Br1278   1.931       .  S
C1264      C1267   1.522       .  S
C1264      C1841   1.392       .  A
C1265      C1840   1.397       .  A
C1265      C1266   1.466       .  A
C1265     Br1273   1.952       .  S
C1266      C1837   1.501       .  A
C1266     Br1277   1.949       .  S
C1267      C1268   1.411       .  A
C1267      C1848   1.417       .  A
C1268      C1269   1.415       .  A
C1268     Br1279   1.925       .  S
C1269      C1270   1.428       .  A
C1269     Br1275   1.939       .  S
C1270      C1847   1.417       .  A
C1271      C1846   1.418   1_545  A
C1271      C1272   1.411       .  A
C1271     Br1280   1.941       .  S
C1272      C1843   1.414       .  A
C1272     Br1276   1.911       .  S
C1281      C1286   1.483       .  A
C1282      C1283   1.463   1_455  A
C1282     Br1294   1.950       .  S
C1283     Br1298   1.937       .  S
C1284      C1287   1.533       .  S
C1284      C1285   1.381       .  A
C1285      C1286   1.450       .  A
C1285     Br1293   1.980       .  S
C1286     Br1297   1.846       .  S
C1287      C1292   1.427       .  A
C1288      C1289   1.409       .  A
C1288     Br1299   1.923       .  S
C1289     Br1295   1.929       .  S
C1290      C1291   1.409       .  A
C1291      C1292   1.417       .  A
C1291     Br1300   1.931       .  S
C1292     Br1296   1.923       .  S
C1301      C1306   1.453       .  A
C1302      C1303   1.456       .  A
C1302     Br1314   1.902       .  S
C1303     Br1318   1.953       .  S
C1304      C1307   1.547       .  S
C1304      C1305   1.407       .  A
C1305      C1306   1.436       .  A
C1305     Br1313   1.942       .  S
C1306     Br1317   1.949       .  S
C1307      C1308   1.427       .  A
C1308      C1309   1.408       .  A
C1308     Br1319   1.901       .  S
C1309      C1310   1.397       .  A
C1309     Br1315   1.930       .  S
C1311      C1312   1.420       .  A
C1311     Br1320   1.926       .  S
C1312     Br1316   1.921   1_455  S
C1321      C1322   1.413       .  A
C1322      C1323   1.417       .  A
C1322     Br1334   1.934       .  S
C1323      C1324   1.423       .  A
C1323     Br1338   1.929       .  S
C1324      C1327   1.538       .  S
C1325      C1326   1.415       .  A
C1325     Br1333   1.925       .  S
C1326     Br1337   1.939       .  S
C1327      C1328   1.410       .  A
C1328      C1329   1.467       .  A
C1328     Br1339   1.945       .  S
C1329      C1330   1.519       .  A
C1329     Br1335   1.942       .  S
C1331      C1332   1.444       .  A
C1331     Br1340   1.930       .  S
C1332     Br1336   1.969       .  S
C1341      C1346   1.508       .  A
C1342      C1343   1.464       .  A
C1342     Br1354   1.934       .  S
C1343     Br1358   1.952       .  S
C1344      C1347   1.561       .  S
C1344      C1345   1.388       .  A
C1345      C1346   1.475   1_455  A
C1345     Br1353   1.971   1_455  S
C1346     Br1357   1.827       .  S
C1347      C1348   1.422   1_455  A
C1348      C1349   1.419       .  A
C1348     Br1359   1.909       .  S
C1349      C1350   1.420   1_655  A
C1349     Br1355   1.938       .  S
C1351      C1352   1.422       .  A
C1351     Br1360   1.944       .  S
C1352     Br1356   1.892       .  S
C1361      C1362   1.470       .  A
C1361      C1366   1.502       .  A
C1362      C1363   1.444       .  A
C1362     Br1374   1.876       .  S
C1363      C1364   1.390       .  A
C1363     Br1378   1.946       .  S
C1364      C1367   1.534       .  S
C1364      C1365   1.393       .  A
C1365      C1366   1.468       .  A
C1365     Br1373   1.980       .  S
C1366     Br1377   1.888       .  S
C1367      C1368   1.417       .  A
C1367      C1372   1.419       .  A
C1368      C1369   1.414       .  A
C1368     Br1379   1.913       .  S
C1369      C1370   1.416       .  A
C1369     Br1375   1.938       .  S
C1370      C1371   1.418       .  A
C1371      C1372   1.426       .  A
C1371     Br1380   1.930       .  S
C1372     Br1376   1.919       .  S
C1381      C1382   1.400       .  A
C1381      C1386   1.395       .  A
C1382      C1383   1.423       .  A
C1382     Br1394   1.937       .  S
C1383      C1384   1.452       .  A
C1383     Br1398   1.940       .  S
C1384      C1387   1.580       .  S
C1384      C1385   1.440       .  A
C1385      C1386   1.419       .  A
C1385     Br1393   1.892       .  S
C1386     Br1397   1.946       .  S
C1387      C1388   1.437       .  A
C1387      C1392   1.411       .  A
C1388      C1389   1.447       .  A
C1388     Br1399   1.932       .  S
C1389      C1390   1.418       .  A
C1389     Br1395   1.849       .  S
C1390      C1391   1.490       .  A
C1391      C1392   1.450       .  A
C1391     Br1400   1.898       .  S
C1392     Br1396   1.983       .  S
C1401      C1402   1.429       .  A
C1401      C1406   1.426       .  A
C1402      C1403   1.413       .  A
C1402     Br1414   1.939       .  S
C1403      C1404   1.406       .  A
C1403     Br1418   1.922       .  S
C1404      C1407   1.515       .  S
C1404      C1405   1.411       .  A
C1405      C1406   1.415       .  A
C1405     Br1413   1.925       .  S
C1406     Br1417   1.938       .  S
C1407      C1408   1.377       .  A
C1407      C1412   1.386       .  A
C1408      C1409   1.439       .  A
C1408     Br1419   1.954       .  S
C1409      C1410   1.495       .  A
C1409     Br1415   1.922       .  S
C1410      C1411   1.473       .  A
C1411      C1412   1.459       .  A
C1411     Br1420   1.884       .  S
C1412     Br1416   1.971       .  S
C1421      C1422   1.498       .  A
C1421      C1426   1.396       .  A
C1422      C1423   1.454       .  A
C1422     Br1434   1.908       .  S
C1423      C1424   1.409       .  A
C1423     Br1438   1.965       .  S
C1424      C1427   1.582       .  S
C1424      C1425   1.430       .  A
C1425      C1426   1.465       .  A
C1425     Br1433   1.939       .  S
C1426     Br1437   1.825       .  S
C1427      C1428   1.441       .  A
C1427      C1432   1.448       .  A
C1428      C1429   1.430       .  A
C1428     Br1439   1.906       .  S
C1429      C1430   1.404       .  A
C1429     Br1435   1.937       .  S
C1430      C1431   1.391       .  A
C1431      C1432   1.415       .  A
C1431     Br1440   1.954       .  S
C1432     Br1436   1.895       .  S
O1441      V1449   1.912       .  S
O1441      C1451   1.266       .  A
O1442      C1452   1.268       .  A
O1443      V1449   1.892       .  S
O1443      C1453   1.261       .  A
O1444      C1454   1.267       .  A
O1445      V1450   1.927       .  S
O1445      C1454   1.270       .  A
O1446      C1453   1.269       .  A
O1447      V1450   1.917       .  S
O1447      C1452   1.266       .  A
O1448      C1451   1.266       .  A
C1451      C1669   1.492       .  S
C1452      C1718   1.501       .  S
C1453      C1689   1.512       .  S
C1454      C1658   1.513       .  S
O1455      V1463   1.901       .  S
O1456      C1466   1.262       .  A
O1457      V1463   1.920       .  S
O1457      C1467   1.269       .  A
O1459      V1464   1.902   1_556  S
O1459      C1468   1.262       .  A
O1461      V1464   1.918   1_556  S
O1462      C1465   1.272   1_655  A
C1465      C1638   1.526       .  S
C1466      C1598   1.485       .  S
C1467      C1578   1.496       .  S
C1468      C1609   1.498       .  S
O1469      V1477   1.894   1_556  S
O1469      C2055   1.261       .  A
O1470      C1480   1.260       .  A
O1471      V1477   1.923   1_556  S
O1471      C1481   1.270       .  A
O1472      C2058   1.272       .  A
O1473      V1478   1.896       .  S
O1473      C1482   1.263   1_545  A
O1474      C2057   1.265   1_545  A
O1475      V1478   1.901       .  S
O1475      C2056   1.266   1_545  A
O1476      C1479   1.268   1_545  A
V1477      V1766   2.076   1_554  T
V1478      V1765   2.077   1_545  T
C1479      O2045   1.266       .  A
C1479      C1518   1.496       .  S
C1480      O2051   1.271       .  A
C1480      C1558   1.516       .  S
C1481      O2050   1.262       .  A
C1481      C1538   1.523       .  S
C1482      O2048   1.270       .  A
C1482      C1489   1.507   1_565  S
C1483      C1486   1.974       .  S
C1483      C1569   1.799       .  S
C1483      C1589   1.799       .  S
C1484      C1487   1.968       .  S
C1484      C1618   1.789       .  S
C1484      C1629   1.855   1_655  S
C1485      C2062   2.032   1_545  S
C1485      C1698   1.724       .  S
C1485      C1709   1.718       .  S
C1486      C2061   2.029       .  S
C1486      C1529   1.845       .  S
C1486      C1549   1.744       .  S
C1487      C2064   2.033   1_545  S
C1487      C1498   1.772       .  S
C1487      C1509   1.787   1_545  S
C1488      C2063   2.019       .  S
C1488      C1649   1.779       .  S
C1488      C1678   1.707       .  S
C1489      C2066   1.413   1_545  A
C1489      C1494   1.415       .  A
C1490      C2065   1.395       .  A
C1490      C1491   1.398       .  A
C1490     Br1502   1.923       .  S
C1491      C2068   1.422       .  A
C1491     Br1506   1.915       .  S
C1492      C1495   1.545       .  S
C1492      C2067   1.423   1_545  A
C1492      C1493   1.420       .  A
C1493      C1494   1.418       .  A
C1493     Br1501   1.898       .  S
C1494     Br1505   1.940       .  S
C1495      C1496   1.395       .  A
C1495      C1500   1.385       .  A
C1496      C1497   1.449       .  A
C1496     Br2083   1.942       .  S
C1497      C1498   1.495       .  A
C1497     Br1503   1.967       .  S
C1498      C1499   1.471   1_545  A
C1499      C1500   1.457   1_565  A
C1499     Br1508   1.898       .  S
C1500     Br1504   1.949   1_545  S
Br1507     C2072   1.934       .  S
C1509      C1510   1.492   1_565  A
C1509      C2090   1.482       .  A
C1510      C1511   1.458       .  A
C1510     Br1522   1.835       .  S
C1511      C1512   1.382   1_545  A
C1511     Br1526   1.960       .  S
C1512      C1515   1.548       .  S
C1512      C2089   1.402       .  A
C1513      C2088   1.399       .  A
C1513      C1514   1.460       .  A
C1513     Br1521   1.942       .  S
C1514      C2085   1.485       .  A
C1514     Br1525   1.930       .  S
C1515      C1516   1.424       .  A
C1515      C1520   1.429       .  A
C1516      C1517   1.410       .  A
C1516     Br1527   1.904       .  S
C1517      C1518   1.401       .  A
C1517     Br1523   1.934       .  S
C1518      C2095   1.408       .  A
C1519      C2094   1.406       .  A
C1519      C2096   1.420       .  A
C1519     Br1528   1.929       .  S
C1520      C2095   1.425       .  A
C1520     Br2100   1.922       .  S
Br1524     C2096   1.924       .  S
C1529      C2106   1.469       .  A
C1529      C1534   1.560       .  A
C1530      C2105   1.460       .  A
C1530      C1531   1.449       .  A
C1530     Br1542   1.951   1_565  S
C1531      C2108   1.423       .  A
C1531     Br1546   1.949       .  S
C1532      C1535   1.561       .  S
C1532      C2107   1.423       .  A
C1532      C1533   1.388       .  A
C1533      C1534   1.479       .  A
C1533     Br1541   2.020       .  S
C1534     Br1545   1.985       .  S
C1535      C2112   1.425       .  A
C1535      C1540   1.428       .  A
C1536      C2111   1.426       .  A
C1536      C1537   1.401   1_565  A
C1536     Br1547   1.930   1_565  S
C1537      C2114   1.413   1_545  A
C1537     Br1543   1.934       .  S
C1538      C2113   1.419       .  A
C1538      C1539   1.423       .  A
C1539      C1540   1.431       .  A
C1539     Br1548   1.939       .  S
C1540     Br1544   1.907       .  S
C1549      C1550   1.453       .  A
C1549      C2130   1.502       .  A
C1550      C1551   1.445       .  A
C1550     Br1562   1.928       .  S
C1551      C1552   1.401       .  A
C1551     Br1566   1.931       .  S
C1552      C1555   1.526       .  S
C1552      C2129   1.394       .  A
C1553      C2128   1.398       .  A
C1553      C1554   1.466       .  A
C1553     Br1561   1.950       .  S
C1554      C2125   1.501       .  A
C1554     Br1565   1.950       .  S
C1555      C1556   1.411       .  A
C1555      C2136   1.418       .  A
C1556      C1557   1.416       .  A
C1556     Br1567   1.926       .  S
C1557      C1558   1.430       .  A
C1557     Br1563   1.940       .  S
C1558      C2135   1.419       .  A
C1559      C2134   1.417   1_545  A
C1559      C1560   1.409       .  A
C1559     Br1568   1.942       .  S
C1560      C2131   1.413       .  A
C1560     Br1564   1.908       .  S
C1569      C1574   1.485       .  A
C1570      C1571   1.460       .  A
C1570     Br1582   1.950   1_655  S
C1571     Br1586   1.936       .  S
C1572      C1575   1.533       .  S
C1572      C1573   1.381       .  A
C1573      C1574   1.451       .  A
C1573     Br1581   1.980       .  S
C1574     Br1585   1.847       .  S
C1575      C1580   1.427       .  A
C1576      C1577   1.408       .  A
C1576     Br1587   1.925       .  S
C1577     Br1583   1.928       .  S
C1578      C1579   1.410       .  A
C1579      C1580   1.418       .  A
C1579     Br1588   1.934       .  S
C1580     Br1584   1.922       .  S
C1589      C1594   1.453       .  A
C1590      C1591   1.456       .  A
C1590     Br1602   1.905       .  S
C1591     Br1606   1.950       .  S
C1592      C1595   1.547       .  S
C1592      C1593   1.407       .  A
C1593      C1594   1.437       .  A
C1593     Br1601   1.943       .  S
C1594     Br1605   1.948       .  S
C1595      C1596   1.428       .  A
C1596      C1597   1.408       .  A
C1596     Br1607   1.902       .  S
C1597      C1598   1.397       .  A
C1597     Br1603   1.930       .  S
C1599      C1600   1.419       .  A
C1599     Br1608   1.927       .  S
C1600     Br1604   1.920   1_455  S
C1609      C1610   1.413       .  A
C1610      C1611   1.417       .  A
C1610     Br1622   1.934       .  S
C1611      C1612   1.424       .  A
C1611     Br1626   1.928       .  S
C1612      C1615   1.536       .  S
C1613      C1614   1.415       .  A
C1613     Br1621   1.926       .  S
C1614     Br1625   1.939       .  S
C1615      C1616   1.409       .  A
C1616      C1617   1.466       .  A
C1616     Br1627   1.944       .  S
C1617      C1618   1.517       .  A
C1617     Br1623   1.932       .  S
C1619      C1620   1.447       .  A
C1619     Br1628   1.931       .  S
C1620     Br1624   1.974       .  S
C1629      C1634   1.509   1_455  A
C1630      C1631   1.464       .  A
C1630     Br1642   1.938       .  S
C1631     Br1646   1.953       .  S
C1632      C1635   1.558       .  S
C1632      C1633   1.388       .  A
C1633      C1634   1.474   1_455  A
C1633     Br1641   1.963   1_455  S
C1634     Br1645   1.837       .  S
C1635      C1636   1.421   1_455  A
C1636      C1637   1.418       .  A
C1636     Br1647   1.914       .  S
C1637      C1638   1.419   1_655  A
C1637     Br1643   1.934       .  S
C1639      C1640   1.424       .  A
C1639     Br1648   1.942       .  S
C1640     Br1644   1.893       .  S
C1649      C1650   1.469       .  A
C1649      C1654   1.504       .  A
C1650      C1651   1.445       .  A
C1650     Br1662   1.869       .  S
C1651      C1652   1.389       .  A
C1651     Br1666   1.950       .  S
C1652      C1655   1.535       .  S
C1652      C1653   1.392       .  A
C1653      C1654   1.469       .  A
C1653     Br1661   1.982       .  S
C1654     Br1665   1.892       .  S
C1655      C1656   1.416       .  A
C1655      C1660   1.419       .  A
C1656      C1657   1.414       .  A
C1656     Br1667   1.911       .  S
C1657      C1658   1.415       .  A
C1657     Br1663   1.938       .  S
C1658      C1659   1.419       .  A
C1659      C1660   1.426       .  A
C1659     Br1668   1.931       .  S
C1660     Br1664   1.920       .  S
C1669      C1670   1.400       .  A
C1669      C1674   1.396       .  A
C1670      C1671   1.421       .  A
C1670     Br1682   1.938       .  S
C1671      C1672   1.452       .  A
C1671     Br1686   1.941       .  S
C1672      C1675   1.579       .  S
C1672      C1673   1.439       .  A
C1673      C1674   1.419       .  A
C1673     Br1681   1.890       .  S
C1674     Br1685   1.946       .  S
C1675      C1676   1.436       .  A
C1675      C1680   1.409       .  A
C1676      C1677   1.446       .  A
C1676     Br1687   1.933       .  S
C1677      C1678   1.419       .  A
C1677     Br1683   1.847       .  S
C1678      C1679   1.497       .  A
C1679      C1680   1.452       .  A
C1679     Br1688   1.904       .  S
C1680     Br1684   1.990       .  S
C1689      C1690   1.428       .  A
C1689      C1694   1.424       .  A
C1690      C1691   1.411       .  A
C1690     Br1702   1.939       .  S
C1691      C1692   1.405       .  A
C1691     Br1706   1.920       .  S
C1692      C1695   1.516       .  S
C1692      C1693   1.412       .  A
C1693      C1694   1.416       .  A
C1693     Br1701   1.925       .  S
C1694     Br1705   1.936       .  S
C1695      C1696   1.378       .  A
C1695      C1700   1.387       .  A
C1696      C1697   1.441       .  A
C1696     Br1707   1.955       .  S
C1697      C1698   1.496       .  A
C1697     Br1703   1.925       .  S
C1698      C1699   1.474       .  A
C1699      C1700   1.460       .  A
C1699     Br1708   1.886       .  S
C1700     Br1704   1.973       .  S
C1709      C1710   1.497       .  A
C1709      C1714   1.396       .  A
C1710      C1711   1.453       .  A
C1710     Br1722   1.910       .  S
C1711      C1712   1.410       .  A
C1711     Br1726   1.964       .  S
C1712      C1715   1.581       .  S
C1712      C1713   1.428       .  A
C1713      C1714   1.464       .  A
C1713     Br1721   1.939       .  S
C1714     Br1725   1.825       .  S
C1715      C1716   1.441       .  A
C1715      C1720   1.445       .  A
C1716      C1717   1.431       .  A
C1716     Br1727   1.907       .  S
C1717      C1718   1.406       .  A
C1717     Br1723   1.936       .  S
C1718      C1719   1.393       .  A
C1719      C1720   1.415       .  A
C1719     Br1728   1.953       .  S
C1720     Br1724   1.893       .  S
O1729      V1737   1.905       .  S
O1729      C1739   1.265       .  A
O1730      V2025   1.905   1_554  S
O1730      C1740   1.267       .  A
O1731      V1737   1.884       .  S
O1731      C1741   1.259       .  A
O1732      V2025   1.896   1_554  S
O1732      C1742   1.262       .  A
O1733      V1738   1.938   1_554  S
O1733      C1742   1.274       .  A
O1734      V2026   1.924       .  S
O1734      C1741   1.272       .  A
O1735      V1738   1.911   1_554  S
O1735      C1740   1.265       .  A
O1736      V2026   1.905       .  S
O1736      C1739   1.266       .  A
V1737      O2018   1.904       .  S
V1737      O2020   1.899       .  S
V1737      V2026   2.072       .  T
V1738      O2022   1.928       .  S
V1738      O2024   1.901       .  S
V1738      V2025   2.074       .  T
C1739      C1957   1.486       .  S
C1740      C2006   1.494       .  S
C1741      C1977   1.505       .  S
C1742      C1946   1.521       .  S
O1743      V1751   1.894   1_554  S
O1744      V2039   1.893       .  S
O1744      C1754   1.261       .  A
O1745      V1751   1.916   1_554  S
O1745      C1755   1.268       .  A
O1746      V2039   1.913       .  S
O1747      V1752   1.904       .  S
O1747      C1756   1.263       .  A
O1748      V2040   1.905       .  S
O1749      V1752   1.914       .  S
O1750      V2040   1.922       .  S
O1750      C1753   1.269   1_655  A
V1751      O2032   1.890       .  S
V1751      O2034   1.908       .  S
V1752      O2036   1.904       .  S
V1752      O2038   1.921       .  S
C1753      C1926   1.517       .  S
C1754      C1886   1.478       .  S
C1755      C1866   1.496       .  S
C1756      C1897   1.495       .  S
O1757      V1765   1.916       .  S
O1758      V2053   1.906       .  S
O1758      C1768   1.264       .  A
O1759      V1765   1.919       .  S
O1759      C1769   1.269       .  A
O1760      V2053   1.917       .  S
O1761      V1766   1.904   1_554  S
O1761      C1770   1.260       .  A
O1762      V2054   1.899       .  S
O1763      V1766   1.915   1_554  S
O1764      V2054   1.919       .  S
O1764      C1767   1.270       .  A
V1765      O2046   1.905       .  S
V1765      O2048   1.919       .  S
V1766      O2050   1.896       .  S
V1766      O2052   1.918       .  S
C1767      C1806   1.488       .  S
C1768      C1846   1.508       .  S
C1769      C1826   1.517       .  S
C1770      C1777   1.489       .  S
C1771      C1774   1.970       .  S
C1771      C1857   1.799       .  S
C1771      C1877   1.795       .  S
C1772      C1775   1.974   1_455  S
C1772      C1906   1.792       .  S
C1772      C1917   1.864       .  S
C1773      C1986   1.716       .  S
C1773      C1997   1.698       .  S
C1774      C1817   1.845       .  S
C1774      C1837   1.750   1_565  S
C1775      C1786   1.758       .  S
C1775      C1797   1.791       .  S
C1776      C1937   1.767       .  S
C1776      C1966   1.703       .  S
C1777      C1782   1.409       .  A
C1778      C1779   1.416       .  A
C1778     Br1790   1.934       .  S
C1779     Br1794   1.921       .  S
C1780      C1783   1.530       .  S
C1780      C1781   1.432       .  A
C1781      C1782   1.422       .  A
C1781     Br1789   1.933       .  S
C1782     Br1793   1.927       .  S
C1783      C1784   1.405       .  A
C1783      C1788   1.402       .  A
C1784      C1785   1.432       .  A
C1785      C1786   1.469       .  A
C1785     Br1791   1.956       .  S
C1786      C1787   1.471       .  A
C1787      C1788   1.463       .  A
C1787     Br1796   1.919       .  S
C1788     Br1792   1.967       .  S
C1797      C1798   1.490       .  A
C1798      C1799   1.455       .  A
C1798     Br1810   1.831       .  S
C1799      C1800   1.381       .  A
C1799     Br1814   1.964       .  S
C1800      C1803   1.538       .  S
C1801      C1802   1.460       .  A
C1801     Br1809   1.950       .  S
C1802     Br1813   1.914       .  S
C1803      C1804   1.417       .  A
C1803      C1808   1.429       .  A
C1804      C1805   1.405       .  A
C1804     Br1815   1.895       .  S
C1805      C1806   1.402       .  A
C1805     Br1811   1.936       .  S
C1807     Br1816   1.930       .  S
C1817      C1822   1.562       .  A
C1818      C1819   1.451       .  A
C1818     Br1830   1.953       .  S
C1819     Br1834   1.958       .  S
C1820      C1823   1.558       .  S
C1820      C1821   1.391       .  A
C1821      C1822   1.483       .  A
C1821     Br1829   2.026       .  S
C1822     Br1833   1.977       .  S
C1823      C1828   1.433       .  A
C1824      C1825   1.401       .  A
C1824     Br1835   1.929       .  S
C1825     Br1831   1.934       .  S
C1826      C1827   1.419       .  A
C1827      C1828   1.429       .  A
C1827     Br1836   1.940       .  S
C1828     Br1832   1.903       .  S
C1837      C1838   1.459       .  A
C1838      C1839   1.445   1_545  A
C1838     Br1850   1.937       .  S
C1839      C1840   1.401   1_565  A
C1839     Br1854   1.947       .  S
C1840      C1843   1.523       .  S
C1841      C1842   1.464       .  A
C1841     Br1849   1.953       .  S
C1842     Br1853   1.946       .  S
C1843      C1844   1.413   1_545  A
C1844      C1845   1.416       .  A
C1844     Br1855   1.921       .  S
C1845      C1846   1.424       .  A
C1845     Br1851   1.934       .  S
C1847      C1848   1.413       .  A
C1847     Br1856   1.942       .  S
C1848     Br1852   1.911       .  S
C1857      C1862   1.486       .  A
C1858      C1859   1.461       .  A
C1858     Br1870   1.954   1_655  S
C1859     Br1874   1.944       .  S
C1860      C1863   1.535       .  S
C1860      C1861   1.385       .  A
C1861      C1862   1.454       .  A
C1861     Br1869   1.977       .  S
C1862     Br1873   1.849       .  S
C1863      C1868   1.426       .  A
C1864      C1865   1.412       .  A
C1864     Br1875   1.922       .  S
C1865     Br1871   1.935       .  S
C1866      C1867   1.410       .  A
C1867      C1868   1.418       .  A
C1867     Br1876   1.930       .  S
C1868     Br1872   1.923       .  S
C1877      C1882   1.455       .  A
C1878      C1879   1.451       .  A
C1878     Br1890   1.905       .  S
C1879     Br1894   1.945       .  S
C1880      C1883   1.547       .  S
C1880      C1881   1.408       .  A
C1881      C1882   1.438       .  A
C1881     Br1889   1.946       .  S
C1882     Br1893   1.946       .  S
C1883      C1884   1.432       .  A
C1884      C1885   1.405       .  A
C1884     Br1895   1.901       .  S
C1885      C1886   1.394       .  A
C1885     Br1891   1.933       .  S
C1887      C1888   1.416       .  A
C1887     Br1896   1.927   1_655  S
C1888     Br1892   1.920       .  S
C1897      C1898   1.415       .  A
C1898      C1899   1.416       .  A
C1898     Br1910   1.932       .  S
C1899      C1900   1.418       .  A
C1899     Br1914   1.927       .  S
C1900      C1903   1.528       .  S
C1901      C1902   1.411       .  A
C1901     Br1909   1.929       .  S
C1902     Br1913   1.935       .  S
C1903      C1904   1.401       .  A
C1904      C1905   1.465       .  A
C1904     Br1915   1.934       .  S
C1905      C1906   1.512   1_655  A
C1905     Br1911   1.938       .  S
C1907      C1908   1.446       .  A
C1907     Br1916   1.942       .  S
C1908     Br1912   1.983       .  S
C1917      C1922   1.509   1_455  A
C1918      C1919   1.464       .  A
C1918     Br1930   1.954       .  S
C1919     Br1934   1.957       .  S
C1920      C1923   1.555       .  S
C1920      C1921   1.392   1_455  A
C1921      C1922   1.474       .  A
C1921     Br1929   1.966       .  S
C1922     Br1933   1.846       .  S
C1923      C1924   1.424   1_455  A
C1924      C1925   1.415       .  A
C1924     Br1935   1.916       .  S
C1925      C1926   1.418   1_655  A
C1925     Br1931   1.936       .  S
C1927      C1928   1.422       .  A
C1927     Br1936   1.943       .  S
C1928     Br1932   1.901       .  S
C1937      C1938   1.473       .  A
C1937      C1942   1.487       .  A
C1938      C1939   1.446       .  A
C1938     Br1950   1.868       .  S
C1939      C1940   1.391       .  A
C1939     Br1954   1.954       .  S
C1940      C1943   1.537       .  S
C1940      C1941   1.395       .  A
C1941      C1942   1.465       .  A
C1941     Br1949   1.960       .  S
C1942     Br1953   1.882       .  S
C1943      C1944   1.415       .  A
C1943      C1948   1.420       .  A
C1944      C1945   1.417       .  A
C1944     Br1955   1.915       .  S
C1945      C1946   1.425       .  A
C1945     Br1951   1.942       .  S
C1946      C1947   1.420       .  A
C1947      C1948   1.425       .  A
C1947     Br1956   1.932       .  S
C1948     Br1952   1.920       .  S
C1957      C1958   1.402       .  A
C1957      C1962   1.398       .  A
C1958      C1959   1.416       .  A
C1958     Br1970   1.939       .  S
C1959      C1960   1.448       .  A
C1959     Br1974   1.946       .  S
C1960      C1963   1.556       .  S
C1960      C1961   1.428       .  A
C1961      C1962   1.414       .  A
C1961     Br1969   1.896       .  S
C1962     Br1973   1.939       .  S
C1963      C1964   1.428       .  A
C1963      C1968   1.403       .  A
C1964      C1965   1.443       .  A
C1964     Br1975   1.948       .  S
C1965      C1966   1.420       .  A
C1965     Br1971   1.850       .  S
C1966      C1967   1.499       .  A
C1967      C1968   1.446       .  A
C1967     Br1976   1.913       .  S
C1968     Br1972   1.989       .  S
C1977      C1978   1.427       .  A
C1977      C1982   1.420       .  A
C1978      C1979   1.407       .  A
C1978     Br1990   1.937       .  S
C1979      C1980   1.403       .  A
C1979     Br1994   1.921       .  S
C1980      C1983   1.510       .  S
C1980      C1981   1.412       .  A
C1981      C1982   1.416       .  A
C1981     Br1989   1.924       .  S
C1982     Br1993   1.934       .  S
C1983      C1984   1.376       .  A
C1983      C1988   1.385       .  A
C1984      C1985   1.440       .  A
C1984     Br1995   1.958       .  S
C1985      C1986   1.500       .  A
C1985     Br1991   1.930       .  S
C1986      C1987   1.468       .  A
C1987      C1988   1.455       .  A
C1987     Br1996   1.887       .  S
C1988     Br1992   1.972       .  S
C1997      C1998   1.498       .  A
C1997      C2002   1.392       .  A
C1998      C1999   1.445       .  A
C1998     Br2010   1.915       .  S
C1999      C2000   1.400       .  A
C1999     Br2014   1.959       .  S
C2000      C2003   1.559       .  S
C2000      C2001   1.426       .  A
C2001      C2002   1.455       .  A
C2001     Br2009   1.944       .  S
C2002     Br2013   1.829       .  S
C2003      C2004   1.429       .  A
C2003      C2008   1.450       .  A
C2004      C2005   1.425       .  A
C2004     Br2015   1.925       .  S
C2005      C2006   1.409       .  A
C2005     Br2011   1.929       .  S
C2006      C2007   1.396       .  A
C2007      C2008   1.413       .  A
C2007     Br2016   1.960       .  S
C2008     Br2012   1.914       .  S
O2017      V2025   1.906       .  S
O2017      C2027   1.266       .  A
O2018      C2028   1.267       .  A
O2019      V2025   1.881       .  S
O2019      C2029   1.258       .  A
O2020      C2030   1.264       .  A
O2021      V2026   1.934       .  S
O2021      C2030   1.273       .  A
O2022      C2029   1.273       .  A
O2023      V2026   1.916       .  S
O2023      C2028   1.267       .  A
O2024      C2027   1.265       .  A
C2027      C2245   1.484       .  S
C2028      C2294   1.496       .  S
C2029      C2265   1.504       .  S
C2030      C2234   1.519       .  S
O2031      V2039   1.896       .  S
O2032      C2042   1.260       .  A
O2033      V2039   1.921       .  S
O2033      C2043   1.269       .  A
O2035      V2040   1.907   1_556  S
O2035      C2044   1.264       .  A
O2037      V2040   1.914   1_556  S
O2038      C2041   1.269   1_655  A
C2041      C2214   1.516       .  S
C2042      C2174   1.477       .  S
C2043      C2154   1.500       .  S
C2044      C2185   1.493       .  S
O2045      V2053   1.916   1_556  S
O2046      C2056   1.263       .  A
O2047      V2053   1.917   1_556  S
O2047      C2057   1.268       .  A
O2049      V2054   1.906       .  S
O2049      C2058   1.261       .  A
O2051      V2054   1.920       .  S
O2052      C2055   1.269       .  A
C2055      C2094   1.485       .  S
C2056      C2134   1.507       .  S
C2057      C2114   1.520       .  S
C2058      C2065   1.491       .  S
C2059      C2062   1.971       .  S
C2059      C2145   1.799       .  S
C2059      C2165   1.799       .  S
C2060      C2063   1.975   1_455  S
C2060      C2194   1.791       .  S
C2060      C2205   1.864       .  S
C2061      C2274   1.716       .  S
C2061      C2285   1.698       .  S
C2062      C2105   1.843       .  S
C2062      C2125   1.750   1_565  S
C2063      C2074   1.759       .  S
C2063      C2085   1.788       .  S
C2064      C2225   1.764       .  S
C2064      C2254   1.701       .  S
C2065      C2070   1.409       .  A
C2066      C2067   1.416       .  A
C2066     Br2078   1.933       .  S
C2067     Br2082   1.919       .  S
C2068      C2071   1.530       .  S
C2068      C2069   1.432       .  A
C2069      C2070   1.423       .  A
C2069     Br2077   1.933       .  S
C2070     Br2081   1.928       .  S
C2071      C2072   1.405       .  A
C2071      C2076   1.398       .  A
C2072      C2073   1.433       .  A
C2073      C2074   1.468       .  A
C2073     Br2079   1.957       .  S
C2074      C2075   1.467       .  A
C2075      C2076   1.462       .  A
C2075     Br2084   1.894       .  S
C2076     Br2080   1.965       .  S
C2085      C2086   1.489       .  A
C2086      C2087   1.454       .  A
C2086     Br2098   1.830       .  S
C2087      C2088   1.381       .  A
C2087     Br2102   1.966       .  S
C2088      C2091   1.536       .  S
C2089      C2090   1.459       .  A
C2089     Br2097   1.948       .  S
C2090     Br2101   1.922       .  S
C2091      C2092   1.417       .  A
C2091      C2096   1.428       .  A
C2092      C2093   1.403       .  A
C2092     Br2103   1.891       .  S
C2093      C2094   1.401       .  A
C2093     Br2099   1.937       .  S
C2095     Br2104   1.930       .  S
C2105      C2110   1.564       .  A
C2106      C2107   1.453       .  A
C2106     Br2118   1.956       .  S
C2107     Br2122   1.959       .  S
C2108      C2111   1.557       .  S
C2108      C2109   1.387       .  A
C2109      C2110   1.482       .  A
C2109     Br2117   2.026       .  S
C2110     Br2121   1.979       .  S
C2111      C2116   1.427       .  A
C2112      C2113   1.406       .  A
C2112     Br2123   1.928       .  S
C2113     Br2119   1.941       .  S
C2114      C2115   1.422       .  A
C2115      C2116   1.429       .  A
C2115     Br2124   1.938       .  S
C2116     Br2120   1.902       .  S
C2125      C2126   1.458       .  A
C2126      C2127   1.444   1_545  A
C2126     Br2138   1.938       .  S
C2127      C2128   1.401   1_565  A
C2127     Br2142   1.945       .  S
C2128      C2131   1.522       .  S
C2129      C2130   1.465       .  A
C2129     Br2137   1.953       .  S
C2130     Br2141   1.940       .  S
C2131      C2132   1.414   1_545  A
C2132      C2133   1.417       .  A
C2132     Br2143   1.922       .  S
C2133      C2134   1.424       .  A
C2133     Br2139   1.935       .  S
C2135      C2136   1.415       .  A
C2135     Br2144   1.941       .  S
C2136     Br2140   1.910       .  S
C2145      C2150   1.484       .  A
C2146      C2147   1.460       .  A
C2146     Br2158   1.955   1_655  S
C2147     Br2162   1.943       .  S
C2148      C2151   1.536       .  S
C2148      C2149   1.386       .  A
C2149      C2150   1.454       .  A
C2149     Br2157   1.978       .  S
C2150     Br2161   1.847       .  S
C2151      C2156   1.427       .  A
C2152      C2153   1.413       .  A
C2152     Br2163   1.924       .  S
C2153     Br2159   1.933       .  S
C2154      C2155   1.410       .  A
C2155      C2156   1.419       .  A
C2155     Br2164   1.930       .  S
C2156     Br2160   1.924       .  S
C2165      C2170   1.456       .  A
C2166      C2167   1.453       .  A
C2166     Br2178   1.904       .  S
C2167     Br2182   1.944       .  S
C2168      C2171   1.551       .  S
C2168      C2169   1.409       .  A
C2169      C2170   1.440       .  A
C2169     Br2177   1.943       .  S
C2170     Br2181   1.948       .  S
C2171      C2172   1.435       .  A
C2172      C2173   1.408       .  A
C2172     Br2183   1.906       .  S
C2173      C2174   1.395       .  A
C2173     Br2179   1.934       .  S
C2175      C2176   1.416       .  A
C2175     Br2184   1.928   1_655  S
C2176     Br2180   1.919       .  S
C2185      C2186   1.414       .  A
C2186      C2187   1.416       .  A
C2186     Br2198   1.932       .  S
C2187      C2188   1.418       .  A
C2187     Br2202   1.926       .  S
C2188      C2191   1.527       .  S
C2189      C2190   1.411       .  A
C2189     Br2197   1.927       .  S
C2190     Br2201   1.938       .  S
C2191      C2192   1.400       .  A
C2192      C2193   1.464       .  A
C2192     Br2203   1.931       .  S
C2193      C2194   1.510   1_655  A
C2193     Br2199   1.936       .  S
C2195      C2196   1.446       .  A
C2195     Br2204   1.940       .  S
C2196     Br2200   1.983       .  S
C2205      C2210   1.508   1_455  A
C2206      C2207   1.465       .  A
C2206     Br2218   1.955       .  S
C2207     Br2222   1.956       .  S
C2208      C2211   1.554       .  S
C2208      C2209   1.393   1_455  A
C2209      C2210   1.472       .  A
C2209     Br2217   1.965       .  S
C2210     Br2221   1.847       .  S
C2211      C2212   1.424   1_455  A
C2212      C2213   1.415       .  A
C2212     Br2223   1.915       .  S
C2213      C2214   1.418   1_655  A
C2213     Br2219   1.936       .  S
C2215      C2216   1.420       .  A
C2215     Br2224   1.943       .  S
C2216     Br2220   1.899       .  S
C2225      C2226   1.474       .  A
C2225      C2230   1.485       .  A
C2226      C2227   1.442       .  A
C2226     Br2238   1.871       .  S
C2227      C2228   1.391       .  A
C2227     Br2242   1.948       .  S
C2228      C2231   1.537       .  S
C2228      C2229   1.396       .  A
C2229      C2230   1.465       .  A
C2229     Br2237   1.959       .  S
C2230     Br2241   1.884       .  S
C2231      C2232   1.415       .  A
C2231      C2236   1.419       .  A
C2232      C2233   1.416       .  A
C2232     Br2243   1.913       .  S
C2233      C2234   1.423       .  A
C2233     Br2239   1.942       .  S
C2234      C2235   1.420       .  A
C2235      C2236   1.425       .  A
C2235     Br2244   1.932       .  S
C2236     Br2240   1.921       .  S
C2245      C2246   1.403       .  A
C2245      C2250   1.397       .  A
C2246      C2247   1.416       .  A
C2246     Br2258   1.940       .  S
C2247      C2248   1.448       .  A
C2247     Br2262   1.945       .  S
C2248      C2251   1.556       .  S
C2248      C2249   1.426       .  A
C2249      C2250   1.412       .  A
C2249     Br2257   1.890       .  S
C2250     Br2261   1.940       .  S
C2251      C2252   1.431       .  A
C2251      C2256   1.403       .  A
C2252      C2253   1.445       .  A
C2252     Br2263   1.950       .  S
C2253      C2254   1.419       .  A
C2253     Br2259   1.853       .  S
C2254      C2255   1.493       .  A
C2255      C2256   1.442       .  A
C2255     Br2264   1.906       .  S
C2256     Br2260   1.984       .  S
C2265      C2266   1.426       .  A
C2265      C2270   1.418       .  A
C2266      C2267   1.407       .  A
C2266     Br2278   1.937       .  S
C2267      C2268   1.403       .  A
C2267     Br2282   1.920       .  S
C2268      C2271   1.510       .  S
C2268      C2269   1.413       .  A
C2269      C2270   1.416       .  A
C2269     Br2277   1.924       .  S
C2270     Br2281   1.932       .  S
C2271      C2272   1.376       .  A
C2271      C2276   1.386       .  A
C2272      C2273   1.439       .  A
C2272     Br2283   1.957       .  S
C2273      C2274   1.500       .  A
C2273     Br2279   1.932       .  S
C2274      C2275   1.469       .  A
C2275      C2276   1.456       .  A
C2275     Br2284   1.889       .  S
C2276     Br2280   1.972       .  S
C2285      C2286   1.497       .  A
C2285      C2290   1.392       .  A
C2286      C2287   1.444       .  A
C2286     Br2298   1.913       .  S
C2287      C2288   1.400       .  A
C2287     Br2302   1.961       .  S
C2288      C2291   1.557       .  S
C2288      C2289   1.425       .  A
C2289      C2290   1.455       .  A
C2289     Br2297   1.945       .  S
C2290     Br2301   1.827       .  S
C2291      C2292   1.429       .  A
C2291      C2296   1.449       .  A
C2292      C2293   1.426       .  A
C2292     Br2303   1.927       .  S
C2293      C2294   1.410       .  A
C2293     Br2299   1.927       .  S
C2294      C2295   1.397       .  A
C2295      C2296   1.412       .  A
C2295     Br2304   1.960       .  S
C2296     Br2300   1.914       .  S
