geometry optimzed in LAMMPS
_audit_creation_date              2020-11-30 
_audit_creation_method            'lammps2cif' 
_symmetry_space_group_name_H-M    'P1' 
_symmetry_Int_Tables_number       1 
_symmetry_cell_setting            triclinic 
loop_ 
_symmetry_equiv_pos_as_xyz 
  x,y,z 
_cell_length_a                    38.82200043 
_cell_length_b                    38.56399098980258 
_cell_length_c                    44.267604214420516 
_cell_angle_alpha                 89.58832843481322 
_cell_angle_beta                  89.92123205726308 
_cell_angle_gamma                 89.48816583627458 
loop_ 
_atom_site_label 
_atom_site_type_symbol 
_atom_site_fract_x 
_atom_site_fract_y 
_atom_site_fract_z 
_atom_site_charge 
C1          C  0.27038833  0.92065504  0.00508848     0.88600
C2          C  0.28640342  0.91005934  0.47593698    -0.51700
C3          C  0.29321420  0.87553035  0.47448725     0.11500
C4          C  0.28230358  0.85397696  0.00108505     0.22500
C5          C  0.23316765  0.89847031  0.50304225    -0.52400
C6          C  0.24000884  0.86360122  0.50168367     0.11600
C7          C  0.29124173  0.90524625  0.03163683    -0.51900
C8          C  0.29759882  0.87060999  0.02941652     0.12200
H9          H  0.29479438  0.92820848  0.45858629     0.16700
H10         H  0.28779668  0.82574859  0.99925435     0.02400
H11         H  0.21140481  0.90884003  0.00561317     0.17000
H12         H  0.30044813  0.92056928  0.05043291     0.16800
C13         C  0.26043743  0.07298139  0.50355814     0.88600
C14         C  0.28723024  0.08810866  0.03415796    -0.51700
C15         C  0.29261185  0.12283020  0.03241867     0.11500
C16         C  0.27030359  0.13984790  0.50140970     0.22500
C17         C  0.22666109  0.09454667  0.50272519    -0.52400
C18         C  0.23187671  0.12974541  0.50148159     0.11600
C19         C  0.28061959  0.08535788  0.47565312    -0.51900
C20         C  0.28588244  0.12007605  0.47466724     0.12200
H21         H  0.29712689  0.07218157  0.05260422     0.16700
H22         H  0.27516721  0.16817816  0.50072589     0.02400
H23         H  0.20109548  0.08357932  0.50258050     0.17000
H24         H  0.29024572  0.06797378  0.45829443     0.16800
C25         C  0.92807965  0.73195549  0.99804022     0.88600
C26         C  0.91111167  0.71957751  0.47345848    -0.51700
C27         C  0.87692897  0.71310423  0.47488489     0.11500
C28         C  0.86210422  0.71958930  0.00144111     0.22500
C29         C  0.90539157  0.76514000  0.99835792    -0.52400
C30         C  0.86749971  0.76790330  0.50053568     0.11600
C31         C  0.91721898  0.71199538  0.02668085    -0.51900
C32         C  0.88296171  0.70543807  0.02835547     0.12200
H33         H  0.92731757  0.71002452  0.45521840     0.16700
H34         H  0.83421541  0.71369584  0.00308859     0.02400
H35         H  0.91531157  0.79123368  0.99676468     0.17000
H36         H  0.93526963  0.70337510  0.04397418     0.16800
C37         C  0.07562375  0.73495961  0.50027868     0.88600
C38         C  0.08988675  0.71265018  0.02682420    -0.51700
C39         C  0.12409541  0.70579363  0.02910912     0.11500
C40         C  0.14546224  0.71940632  0.00242598     0.22500
C41         C  0.10180377  0.76527092  0.99804942    -0.52400
C42         C  0.13662331  0.75857273  0.00051957     0.11600
C43         C  0.08942694  0.71323791  0.47377197    -0.51900
C44         C  0.12359918  0.70562006  0.47559436     0.12200
H45         H  0.07152694  0.70441438  0.04393726     0.16700
H46         H  0.17334534  0.71309697  0.00413070     0.02400
H47         H  0.08906820  0.79375425  0.49940731     0.17000
H48         H  0.07345537  0.70462733  0.45517989     0.16800
C49         C  0.72582094  0.92585497  0.49645657     0.88600
C50         C  0.71482093  0.90703034  0.03163068    -0.51700
C51         C  0.70936070  0.87228829  0.03086452     0.11500
C52         C  0.72388327  0.85444973  0.00258532     0.22500
C53         C  0.76778789  0.89942758  0.00279345    -0.52400
C54         C  0.76242895  0.86422081  0.00205478     0.11600
C55         C  0.70557153  0.91070310  0.46980259    -0.51900
C56         C  0.70147931  0.87571601  0.47131089     0.12200
H57         H  0.70594933  0.92315699  0.05016136     0.16700
H58         H  0.71872936  0.82619095  0.00226235     0.02400
H59         H  0.78545598  0.91678946  0.49509502     0.17000
H60         H  0.69516908  0.92641971  0.45143769     0.16800
C61         C  0.72068681  0.07861936  0.49807522     0.88600
C62         C  0.70014051  0.09294823  0.47101548    -0.51700
C63         C  0.69389819  0.12763566  0.47211219     0.11500
C64         C  0.70903359  0.14547230  0.50000944     0.22500
C65         C  0.75374239  0.10068269  0.49855198    -0.52400
C66         C  0.74784095  0.13583206  0.49942851     0.11600
C67         C  0.71255480  0.08729167  0.03177782    -0.51900
C68         C  0.70598229  0.12192463  0.03142215     0.12200
H69         H  0.69093634  0.07685757  0.45271186     0.16700
H70         H  0.70331881  0.17370940  0.50055821     0.02400
H71         H  0.77955024  0.08997049  0.49872540     0.17000
H72         H  0.70443810  0.07049320  0.05022810     0.16800
O73         O  0.84333812  0.63723691  0.31258679    -0.55700
C74         C  0.83457533  0.65787082  0.40669842     0.76900
O75         O  0.74210915  0.64237996  0.36107599    -0.56900
C76         C  0.82394837  0.62244509  0.29365414     0.76900
C77         C  0.80614255  0.55219263  0.36938795     0.79300
Cd78       Cd  0.80376055  0.62506289  0.35607125     1.37500
O79         O  0.85029846  0.65617030  0.38163145    -0.55700
O80         O  0.83312585  0.57004035  0.36638970    -0.54500
C81         C  0.74689012  0.67226152  0.34967719     0.79200
O82         O  0.77756517  0.56835376  0.36788088    -0.56900
O83         O  0.80568988  0.64322036  0.40866899    -0.55300
O84         O  0.79683106  0.60878502  0.30403073    -0.55300
O85         O  0.77703685  0.67921831  0.34093516    -0.54500
O86         O  0.63298047  0.82184973  0.31192754    -0.55700
C87         C  0.65028968  0.82347927  0.40502355     0.76900
O88         O  0.56367348  0.75463002  0.36796530    -0.56900
C89         C  0.62261022  0.79999015  0.29280609     0.76900
C90         C  0.66358484  0.72502641  0.35782090     0.79300
Cd91       Cd  0.61856689  0.78448612  0.35691342     1.37500
O92         O  0.64432184  0.83724380  0.37949392    -0.55700
O93         O  0.67161575  0.75359519  0.34559262    -0.54500
C94         C  0.54478405  0.78147814  0.36680568     0.79200
O95         O  0.63388992  0.72333401  0.36960299    -0.56900
O96         O  0.64067671  0.79254951  0.40871553    -0.55300
O97         O  0.61026507  0.77222365  0.30345003    -0.55300
O98         O  0.56003578  0.80997921  0.36252219    -0.54500
O99         O  0.61905487  0.19045358  0.31182946    -0.55700
C100        C  0.63958396  0.17901319  0.40629398     0.76900
O101        O  0.62251634  0.28200009  0.37467281    -0.56900
C102        C  0.60571104  0.21445924  0.29579338     0.76900
C103        C  0.53506450  0.22345554  0.37194509     0.79300
Cd104      Cd  0.60767886  0.22187967  0.36049395     1.37500
O105        O  0.63976195  0.16979516  0.37887649    -0.55700
O106        O  0.55071685  0.19567372  0.36490239    -0.54500
C107        C  0.65241181  0.28029386  0.36330111     0.79200
O108        O  0.55332115  0.25014386  0.37539603    -0.56900
O109        O  0.62336521  0.20655162  0.41260364    -0.55300
O110        O  0.59329726  0.24017008  0.30968008    -0.55300
O111        O  0.66095000  0.25197979  0.35100666    -0.54500
O112        O  0.83904728  0.35329795  0.37578851    -0.55700
C113        C  0.79733614  0.38969918  0.29038608     0.76900
O114        O  0.72831775  0.36349914  0.36507267    -0.56900
C115        C  0.82643826  0.35054443  0.40215086     0.76900
C116        C  0.78353745  0.45604943  0.36969137     0.79300
Cd117      Cd  0.78765571  0.38381923  0.35480656     1.37500
O118        O  0.82071599  0.37522401  0.30623836    -0.55700
O119        O  0.81205457  0.44118196  0.36396225    -0.54500
C120        C  0.73370432  0.33411534  0.35315880     0.79200
O121        O  0.75704999  0.43710788  0.37012874    -0.56900
O122        O  0.77166211  0.40186756  0.30442705    -0.55300
O123        O  0.79755172  0.36484378  0.40682023    -0.55300
O124        O  0.76321954  0.32858338  0.34211581    -0.54500
O125        O  0.16710642  0.65396919  0.38225161    -0.55700
C126        C  0.20804377  0.61322035  0.30006237     0.76900
O127        O  0.27775021  0.63385823  0.37711488    -0.56900
C128        C  0.17510927  0.65198844  0.40995219     0.76900
C129        C  0.21752659  0.54648774  0.37861503     0.79300
Cd130      Cd  0.21718244  0.61895541  0.36465072     1.37500
O131        O  0.18422600  0.62665017  0.31594608    -0.55700
O132        O  0.19032660  0.56237104  0.37051188    -0.54500
C133        C  0.27550882  0.66385316  0.36542050     0.79200
O134        O  0.24428101  0.56456212  0.38205829    -0.56900
O135        O  0.23460221  0.60285686  0.31399515    -0.55300
O136        O  0.20129562  0.63389620  0.41668669    -0.55300
O137        O  0.24675166  0.67236120  0.35405917    -0.54500
O138        O  0.36498214  0.83513987  0.30291941    -0.55700
C139        C  0.34405449  0.83498833  0.40169125     0.76900
O140        O  0.35835711  0.74056805  0.36119995    -0.56900
C141        C  0.37663500  0.81102891  0.28620829     0.76900
C142        C  0.44850778  0.80450203  0.36280881     0.79300
Cd143      Cd  0.37574340  0.80126944  0.35099343     1.37500
O144        O  0.34412457  0.84966824  0.37589734    -0.55700
O145        O  0.43034820  0.83145579  0.35821037    -0.54500
C146        C  0.32800613  0.74566865  0.35128916     0.79200
O147        O  0.43282431  0.77574867  0.36320218    -0.56900
O148        O  0.35956656  0.80616860  0.40404641    -0.55300
O149        O  0.38803437  0.78422701  0.29963066    -0.55300
O150        O  0.32084155  0.77553531  0.34104763    -0.54500
O151        O  0.17024311  0.36917737  0.30707212    -0.55700
C152        C  0.16019322  0.34301223  0.40152950     0.76900
O153        O  0.26144742  0.36735793  0.37017217    -0.56900
C154        C  0.19462623  0.38218342  0.29170663     0.76900
C155        C  0.19426607  0.45131227  0.37136089     0.79300
Cd156      Cd  0.20021576  0.37922202  0.35678591     1.37500
O157        O  0.14944906  0.34585548  0.37458246    -0.55700
O158        O  0.16861824  0.43401287  0.36273576    -0.54500
C159        C  0.26085135  0.33660910  0.36027819     0.79200
O160        O  0.22247109  0.43494544  0.37461573    -0.56900
O161        O  0.18824802  0.35761197  0.40777249    -0.55300
O162        O  0.21989401  0.39371001  0.30635730    -0.55300
O163        O  0.23273556  0.32651252  0.34903438    -0.54500
O164        O  0.33775037  0.15162922  0.37831677    -0.55700
C165        C  0.36955226  0.18829571  0.29081141     0.76900
O166        O  0.34719256  0.26175705  0.36233337    -0.56900
C167        C  0.33761775  0.16480008  0.40449492     0.76900
C168        C  0.44012085  0.19943840  0.36645865     0.79300
Cd169      Cd  0.36765444  0.20102765  0.35465802     1.37500
O170        O  0.36019168  0.16431611  0.30875081    -0.55700
O171        O  0.42311918  0.17229433  0.36135602    -0.54500
C172        C  0.31700952  0.25507275  0.35306551     0.79200
O173        O  0.42339361  0.22787137  0.36728271    -0.56900
O174        O  0.37810936  0.21670402  0.30268473    -0.55300
O175        O  0.35267000  0.19344519  0.40777160    -0.55300
O176        O  0.31129245  0.22441154  0.34471294    -0.54500
C177        C  0.91602103  0.26189390  0.49698025     0.88600
C178        C  0.91062780  0.28481764  0.01909689    -0.51700
C179        C  0.87628951  0.29210672  0.02013862     0.11500
C180        C  0.85041821  0.27791706  0.49668988     0.22500
C181        C  0.89215540  0.23025146  0.49722537    -0.52400
C182        C  0.85762130  0.23841719  0.49722140     0.11600
C183        C  0.90449040  0.28373372  0.46941210    -0.51900
C184        C  0.87038204  0.29185699  0.46924193     0.12200
H185        H  0.92833293  0.29416528  0.03611308     0.16700
H186        H  0.82273357  0.28536687  0.49635168     0.02400
H187        H  0.90195641  0.20381888  0.49807171     0.17000
H188        H  0.92178726  0.29309354  0.45193470     0.16800
C189        C  0.06584228  0.26024502  0.49649233     0.88600
C190        C  0.07800717  0.28085556  0.46844415    -0.51700
C191        C  0.11233677  0.28749374  0.46815896     0.11500
C192        C  0.13175552  0.27351848  0.49590468     0.22500
C193        C  0.08890765  0.22764903  0.49744008    -0.52400
C194        C  0.12351300  0.23444628  0.49706646     0.11600
C195        C  0.08141470  0.28364472  0.01910064    -0.51900
C196        C  0.11560370  0.29080060  0.02063193     0.12200
H197        H  0.06105800  0.29033905  0.45067921     0.16700
H198        H  0.15966211  0.27961228  0.49584726     0.02400
H199        H  0.07862344  0.20156389  0.49792476     0.17000
H200        H  0.06307185  0.29380697  0.03541585     0.16800
O201        O  0.85185707  0.64857867  0.12423057    -0.55700
C202        C  0.81027442  0.60861763  0.20906875     0.76900
O203        O  0.74200971  0.63534218  0.13553926    -0.56900
C204        C  0.83934434  0.65074360  0.09778842     0.76900
C205        C  0.80769030  0.54340662  0.13064491     0.79300
Cd206      Cd  0.80240089  0.61578678  0.14496567     1.37500
O207        O  0.83385113  0.62351287  0.19394959    -0.55700
O208        O  0.83379485  0.56172632  0.13617478    -0.54500
C209        C  0.74670262  0.66443730  0.14814704     0.73600
O210        O  0.77871175  0.55895780  0.12983577    -0.56900
O211        O  0.78506845  0.59690616  0.19443157    -0.55300
O212        O  0.81100005  0.63581527  0.09312497    -0.55300
O213        O  0.77625418  0.67005988  0.15885242    -0.54500
O214        O  0.63092924  0.80821359  0.19291555    -0.55700
C215        C  0.65739011  0.82064567  0.09769074     0.76900
O216        O  0.63537309  0.71928206  0.12736091    -0.56900
C217        C  0.61572222  0.78413416  0.20728913     0.76900
C218        C  0.55023502  0.78738161  0.12799887     0.79300
Cd219      Cd  0.62168552  0.77986024  0.14243648     1.37500
O220        O  0.65615414  0.83033866  0.12500382    -0.55700
O221        O  0.56834305  0.81299214  0.13557432    -0.54500
C222        C  0.66474333  0.71937371  0.13984739     0.79200
O223        O  0.56557745  0.75837774  0.12546012    -0.56900
O224        O  0.64171604  0.79314149  0.09116551    -0.55300
O225        O  0.60351379  0.75983454  0.19174440    -0.55300
O226        O  0.67310118  0.74677264  0.15349075    -0.54500
O227        O  0.65497067  0.15810089  0.12716660    -0.55700
C228        C  0.62032924  0.19472937  0.21185167     0.76900
O229        O  0.63072237  0.26876301  0.13491236    -0.56900
C230        C  0.65358366  0.16888973  0.10008362     0.76900
C231        C  0.54772718  0.20014819  0.13581775     0.79300
Cd232      Cd  0.62002675  0.20664490  0.14745627     1.37500
O233        O  0.63406872  0.17266800  0.19436003    -0.55700
O234        O  0.56666005  0.17404444  0.14144040    -0.54500
C235        C  0.66169697  0.26757901  0.14390141     0.79200
O236        O  0.56243195  0.22933527  0.13435320    -0.56900
O237        O  0.60681240  0.22116710  0.19942940    -0.55300
O238        O  0.63584330  0.19587803  0.09490053    -0.55300
O239        O  0.67224796  0.23898100  0.15475631    -0.54500
O240        O  0.84804221  0.34810397  0.11608901    -0.55700
C241        C  0.81428199  0.37514750  0.20589548     0.76900
O242        O  0.76314955  0.42624109  0.13084089    -0.56900
C243        C  0.83265240  0.34400608  0.09112549     0.76900
C244        C  0.74342827  0.32222260  0.14704547     0.79300
Cd245      Cd  0.79670727  0.37298249  0.14234515     1.37500
O246        O  0.83535938  0.36176707  0.18729154    -0.55700
O247        O  0.77431303  0.31625504  0.15450627    -0.54500
C248        C  0.78890517  0.44612687  0.12967517     0.79200
O249        O  0.73632780  0.35242287  0.13720829    -0.56900
O250        O  0.78680036  0.38760656  0.19482715    -0.55300
O251        O  0.80179530  0.35450480  0.08956328    -0.55300
O252        O  0.81827159  0.43196882  0.13290694    -0.54500
O253        O  0.16236427  0.63362226  0.19801219    -0.55700
C254        C  0.16287922  0.65162301  0.10119666     0.76900
O255        O  0.25751219  0.63199864  0.14194630    -0.56900
C256        C  0.18428844  0.61991901  0.21582945     0.76900
C257        C  0.18670686  0.54517225  0.14044392     0.79300
Cd258      Cd  0.19570469  0.61789575  0.15147676     1.37500
O259        O  0.14880795  0.65186837  0.12709541    -0.55700
O260        O  0.16160726  0.56557273  0.14518299    -0.54500
C261        C  0.25374866  0.66280390  0.15154622     0.79200
O262        O  0.21651851  0.55847704  0.13977767    -0.56900
O263        O  0.19068810  0.63467022  0.09842818    -0.55300
O264        O  0.20972972  0.60467819  0.20367536    -0.55300
O265        O  0.22425462  0.67145655  0.16104993    -0.54500
O266        O  0.35356242  0.82497075  0.12056582    -0.55700
C267        C  0.38728581  0.78367696  0.20315870     0.76900
O268        O  0.36636625  0.71057232  0.12644478    -0.56900
C269        C  0.35072657  0.81505112  0.09349540     0.76900
C270        C  0.45471841  0.76698241  0.12398632     0.79300
Cd271      Cd  0.38287923  0.77123339  0.13873037     1.37500
O272        O  0.37384902  0.80649380  0.18597774    -0.55700
O273        O  0.44007613  0.79554261  0.13013180    -0.54500
C274        C  0.33697439  0.71316298  0.13865734     0.79200
O275        O  0.43577385  0.74051095  0.12304022    -0.56900
O276        O  0.39866422  0.75662340  0.19054507    -0.55300
O277        O  0.36356288  0.78579935  0.08712367    -0.55300
O278        O  0.32953452  0.74204414  0.15049290    -0.54500
O279        O  0.14246799  0.34372630  0.11762974    -0.55700
C280        C  0.17565486  0.37330992  0.20680393     0.76900
O281        O  0.25138321  0.35423962  0.13452148    -0.56900
C282        C  0.15575236  0.34496035  0.09146839     0.76900
C283        C  0.20061253  0.44693169  0.13443657     0.79300
Cd284      Cd  0.19138862  0.37354228  0.14291177     1.37500
O285        O  0.15205947  0.36641887  0.18798091    -0.55700
O286        O  0.17105286  0.43417768  0.13904550    -0.54500
C287        C  0.24637653  0.32403148  0.14500448     0.79200
O288        O  0.22544821  0.42566029  0.13213461    -0.56900
O289        O  0.20488847  0.38023538  0.19582345    -0.55300
O290        O  0.18373732  0.36112692  0.08882787    -0.55300
O291        O  0.21639685  0.31722081  0.15429909    -0.54500
O292        O  0.37067452  0.18484093  0.19077554    -0.55700
C293        C  0.34746146  0.17451589  0.09658856     0.76900
O294        O  0.36136285  0.27714867  0.12744361    -0.56900
C295        C  0.37959210  0.21055698  0.20662346     0.76900
C296        C  0.45154182  0.22071727  0.13054384     0.79300
Cd297      Cd  0.37883346  0.21730451  0.14181931     1.37500
O298        O  0.34889195  0.16458775  0.12391519    -0.55700
O299        O  0.43713840  0.19255970  0.13798409    -0.54500
C300        C  0.33113571  0.27391805  0.13784493     0.79200
O301        O  0.43209492  0.24687737  0.12676043    -0.56900
O302        O  0.36212402  0.20268354  0.09000525    -0.55300
O303        O  0.38811030  0.23772648  0.19253089    -0.55300
O304        O  0.32376318  0.24503544  0.14981434    -0.54500
C305        C  0.27349773  0.29742336  0.14658574    -0.14300
C306        C  0.30553774  0.30221582  0.13605948    -0.29500
H307        H  0.26647313  0.27264982  0.15658618     0.14700
H308        H  0.31281814  0.32677477  0.12583078     0.15300
C309        C  0.18078424  0.50767372  0.13700654    -0.14300
C310        C  0.20650521  0.48467840  0.13299887    -0.29500
H311        H  0.15451993  0.49858348  0.13957813     0.14700
H312        H  0.23282303  0.49363548  0.13052939     0.15300
C313        C  0.28132697  0.68857163  0.15190200    -0.14300
C314        C  0.31228218  0.68427529  0.13891746    -0.29500
H315        H  0.27495457  0.71314886  0.16250680     0.14700
H316        H  0.31902771  0.66008302  0.12787156     0.15300
C317        C  0.51022364  0.19636098  0.13256810    -0.14300
C318        C  0.48921533  0.22365322  0.12774562    -0.29500
H319        H  0.49947295  0.17078472  0.13641963     0.14700
H320        H  0.49990277  0.24925146  0.12387517     0.15300
C321        C  0.68479008  0.29767749  0.14152660    -0.14300
C322        C  0.71791652  0.29449222  0.14988143    -0.29500
H323        H  0.67497019  0.32197974  0.13227498     0.14700
H324        H  0.72735709  0.26987912  0.15884516     0.15300
C325        C  0.51281086  0.79136109  0.12410519    -0.14300
C326        C  0.49223969  0.76406108  0.11986032    -0.29500
H327        H  0.50165834  0.81689273  0.12798833     0.14700
H328        H  0.50329368  0.73840492  0.11641622     0.15300
C329        C  0.81152752  0.50555422  0.12698845    -0.14300
C330        C  0.78449351  0.48406854  0.12620983    -0.29500
H331        H  0.83748906  0.49483825  0.12800602     0.14700
H332        H  0.75845280  0.49461238  0.12568971     0.15300
C333        C  0.72003058  0.69148524  0.15054999    -0.14300
C334        C  0.68858896  0.68944798  0.13818658    -0.29500
H335        H  0.72736021  0.71487273  0.16241119     0.14700
H336        H  0.68092279  0.66642593  0.12599810     0.15300
C337        C  0.12970234  0.31144626  0.04479440    -0.11200
C338        C  0.14071214  0.32764199  0.06595901    -0.12700
C339        C  0.97279168  0.24883764  0.46981662    -0.11200
C340        C  0.95442422  0.25265581  0.49705556     0.10900
C341        C  0.97833804  0.24752958  0.01818145    -0.11200
C342        C  0.01437586  0.24665207  0.01827231    -0.11200
C343        C  0.02733836  0.25226941  0.49676389     0.10900
C344        C  0.00879330  0.24865826  0.46966920    -0.11200
H345        H  0.95947086  0.24754222  0.44841178     0.14900
H346        H  0.96484049  0.24515686  0.03949787     0.14900
H347        H  0.02762722  0.24384074  0.03966548     0.14900
H348        H  0.02193467  0.24709556  0.44815690     0.14900
C349        C  0.86106497  0.31177560  0.04455069    -0.11200
C350        C  0.84887160  0.32726091  0.06574257    -0.12700
C351        C  0.37009428  0.18402172  0.25760668    -0.14300
C352        C  0.38010764  0.21051674  0.23986008    -0.29500
H353        H  0.36153560  0.15985018  0.24779257     0.14700
H354        H  0.38848656  0.23448720  0.25020796     0.15300
C355        C  0.17013573  0.37295819  0.23998307    -0.14300
C356        C  0.19537666  0.38375475  0.25840832    -0.29500
H357        H  0.14609016  0.36330841  0.24920420     0.14700
H358        H  0.21894068  0.39387266  0.24856151     0.15300
C359        C  0.14194898  0.32360684  0.42421401    -0.11200
C360        C  0.12841815  0.30708589  0.44415177    -0.12700
C361        C  0.29119550  0.31335817  0.36182410    -0.14300
C362        C  0.28892388  0.28075112  0.35170852    -0.29500
H363        H  0.31501477  0.32269627  0.37156211     0.14700
H364        H  0.26475935  0.27179413  0.34229965     0.15300
C365        C  0.37636070  0.81310885  0.25268831    -0.14300
C366        C  0.38950807  0.78676564  0.23633371    -0.29500
H367        H  0.36420897  0.83521712  0.24156329     0.14700
H368        H  0.40156052  0.76493869  0.24799618     0.15300
C369        C  0.20649006  0.60952794  0.26693625    -0.14300
C370        C  0.18121258  0.62225759  0.24916017    -0.29500
H371        H  0.22846694  0.59658506  0.25658425     0.14700
H372        H  0.15925340  0.63572778  0.25897288     0.15300
C373        C  0.21876065  0.50853106  0.38213239    -0.14300
C374        C  0.19134173  0.48898767  0.37567650    -0.29500
H375        H  0.24349531  0.49635948  0.38704569     0.14700
H376        H  0.16671835  0.50124657  0.37048924     0.15300
C377        C  0.30474078  0.68796549  0.36498081    -0.14300
C378        C  0.30128570  0.71905617  0.35150010    -0.29500
H379        H  0.32871321  0.68052192  0.37597934     0.14700
H380        H  0.27702145  0.72615395  0.34079169     0.15300
C381        C  0.79794122  0.39212384  0.25713161    -0.14300
C382        C  0.82041816  0.37555321  0.23897600    -0.29500
H383        H  0.77667260  0.40659195  0.24703764     0.14700
H384        H  0.84186549  0.36084605  0.24843890     0.15300
C385        C  0.84324490  0.33096802  0.42572896    -0.11200
C386        C  0.85532014  0.31330117  0.44577074    -0.12700
C387        C  0.62034442  0.19043461  0.24511142    -0.14300
C388        C  0.60454967  0.21413971  0.26254919    -0.29500
H389        H  0.63409404  0.16864410  0.25524834     0.14700
H390        H  0.59107518  0.23583139  0.25192553     0.15300
C391        C  0.49726274  0.22532452  0.37456799    -0.14300
C392        C  0.47776564  0.19735251  0.36990144    -0.29500
H393        H  0.48525066  0.25052824  0.37810461     0.14700
H394        H  0.48994523  0.17220817  0.36642886     0.15300
C395        C  0.67634203  0.30965359  0.36441209    -0.14300
C396        C  0.70773055  0.30681923  0.35196087    -0.29500
H397        H  0.66844443  0.33331274  0.37576298     0.14700
H398        H  0.71530007  0.28293978  0.34075995     0.15300
C399        C  0.62516817  0.80599012  0.25974513    -0.14300
C400        C  0.61224545  0.78267595  0.24046977    -0.29500
H401        H  0.63833275  0.82882978  0.25129369     0.14700
H402        H  0.59900519  0.76012687  0.24948060     0.15300
C403        C  0.50686803  0.77905079  0.36903495    -0.14300
C404        C  0.48625315  0.80706571  0.36621213    -0.29500
H405        H  0.49567192  0.75340080  0.37088421     0.14700
H406        H  0.49753666  0.83266439  0.36419457     0.15300
C407        C  0.83142649  0.62206347  0.26086535    -0.14300
C408        C  0.81015331  0.60525910  0.24218177    -0.29500
H409        H  0.85249514  0.63742387  0.25195729     0.14700
H410        H  0.78910214  0.59026805  0.25166263     0.15300
C411        C  0.78075515  0.49387940  0.37396801    -0.14300
C412        C  0.80861044  0.51421296  0.37270586    -0.29500
H413        H  0.75517587  0.50541524  0.37543636     0.14700
H414        H  0.83413157  0.50252688  0.37125947     0.15300
C415        C  0.71963735  0.69873416  0.34682217    -0.14300
C416        C  0.68804372  0.69554058  0.35880261    -0.29500
H417        H  0.72673336  0.72279225  0.33558803     0.14700
H418        H  0.68069770  0.67183176  0.37043653     0.15300
C419        C  0.79802366  0.21912988  0.51232383    -0.11200
C420        C  0.82978532  0.21183528  0.49828204     0.10900
C421        C  0.83456227  0.17908927  0.48508358    -0.11200
C422        C  0.80818196  0.15454333  0.48553368    -0.11200
C423        C  0.77625336  0.16191029  0.49935483     0.10900
C424        C  0.77164462  0.19451833  0.51286466    -0.11200
H425        H  0.79362120  0.24368470  0.52341761     0.14900
H426        H  0.85842143  0.17263644  0.47367585     0.14900
H427        H  0.81267512  0.13007353  0.47433510     0.14900
H428        H  0.74785018  0.20096186  0.52435253     0.14900
C429        C  0.67419045  0.14542771  0.44898495    -0.11200
C430        C  0.65787326  0.15988193  0.42931400    -0.12700
C431        C  0.67184218  0.15184519  0.07613023    -0.11200
C432        C  0.68747001  0.13866642  0.05558185    -0.12700
C433        C  0.69509100  0.98348251  0.49577382    -0.11200
C434        C  0.72671396  0.96541729  0.49533616     0.10900
C435        C  0.76717825  0.97970251  0.00345624    -0.11200
C436        C  0.76660814  0.01617949  0.00326840    -0.11200
C437        C  0.72423324  0.03915612  0.49676832     0.10900
C438        C  0.69387952  0.01955223  0.49655949    -0.11200
H439        H  0.67103799  0.96945030  0.49600643     0.14900
H440        H  0.79191141  0.96678848  0.00256537     0.14900
H441        H  0.79093016  0.02943551  0.00229950     0.14900
H442        H  0.66893077  0.03233948  0.49722289     0.14900
C443        C  0.69130706  0.85429407  0.05480015    -0.11200
C444        C  0.67594322  0.83961247  0.07484172    -0.12700
C445        C  0.66770020  0.84182995  0.42870766    -0.11200
C446        C  0.68300210  0.85683069  0.44840579    -0.12700
C447        C  0.14864252  0.67040810  0.07594857    -0.11200
C448        C  0.13810533  0.68661199  0.05440541    -0.12700
C449        C  0.14130881  0.68598717  0.45255303    -0.11200
C450        C  0.15597765  0.67008885  0.43288694    -0.12700
C451        C  0.82290368  0.84378783  0.01457675    -0.11200
C452        C  0.79083704  0.83783180  0.00082402     0.10900
C453        C  0.78575540  0.80602016  0.98624160    -0.11200
C454        C  0.80893462  0.78818293  0.48400789    -0.11200
C455        C  0.84013417  0.79524040  0.49873035     0.10900
C456        C  0.84897693  0.81838395  0.01406851    -0.11200
H457        H  0.82763967  0.86774966  0.02638412     0.14900
H458        H  0.76183765  0.80078549  0.97468729     0.14900
H459        H  0.80524796  0.76382808  0.47250558     0.14900
H460        H  0.87306517  0.82350980  0.02541570     0.14900
C461        C  0.98623042  0.70387155  0.99572187    -0.11200
C462        C  0.96717521  0.73498224  0.99617391     0.10900
C463        C  0.98300899  0.77324153  0.49883526    -0.11200
C464        C  0.01922990  0.77179995  0.49881887    -0.11200
C465        C  0.04034339  0.73514151  0.99569349     0.10900
C466        C  0.02192222  0.70394771  0.99543820    -0.11200
H467        H  0.97326940  0.67910014  0.99611159     0.14900
H468        H  0.97042784  0.79832136  0.49923012     0.14900
H469        H  0.03298386  0.79596258  0.49922581     0.14900
H470        H  0.03540076  0.67921997  0.99571266     0.14900
C471        C  0.86015457  0.69296748  0.45213753    -0.11200
C472        C  0.84842666  0.67635693  0.43174587    -0.12700
C473        C  0.86817585  0.68615267  0.05320838    -0.11200
C474        C  0.85597461  0.66983405  0.07394066    -0.12700
C475        C  0.20769676  0.18646144  0.48284251    -0.11200
C476        C  0.20344984  0.15585713  0.49978827     0.10900
C477        C  0.17226113  0.15080467  0.51532612    -0.11200
C478        C  0.14613107  0.17607966  0.51425936    -0.11200
C479        C  0.15064658  0.20692433  0.49762730     0.10900
C480        C  0.18162813  0.21168546  0.48178440    -0.11200
H481        H  0.23105919  0.19079822  0.47003680     0.14900
H482        H  0.16834894  0.12768920  0.52887397     0.14900
H483        H  0.12272040  0.17181305  0.52701778     0.14900
H484        H  0.18562341  0.23476054  0.46820379     0.14900
C485        C  0.31247825  0.14088479  0.05489180    -0.11200
C486        C  0.32903716  0.15544491  0.07402144    -0.12700
C487        C  0.30473973  0.13615783  0.45037340    -0.11200
C488        C  0.32029105  0.14862212  0.42943315    -0.12700
C489        C  0.22014670  0.80559720  0.01769079    -0.11200
C490        C  0.21259228  0.83711161  0.50159173     0.10900
C491        C  0.18198849  0.84265622  0.48530185    -0.11200
C492        C  0.15615473  0.81764336  0.48546292    -0.11200
C493        C  0.16350159  0.78610676  0.00140628     0.10900
C494        C  0.19429112  0.78052078  0.01753060    -0.11200
H495        H  0.24337943  0.80053903  0.03055791     0.14900
H496        H  0.17826601  0.86609759  0.47204683     0.14900
H497        H  0.13317872  0.82232129  0.47216580     0.14900
H498        H  0.19835555  0.75692529  0.03045439     0.14900
C499        C  0.29744243  0.97938666  0.00835325    -0.11200
C500        C  0.26169717  0.96020134  0.50527367     0.10900
C501        C  0.22977916  0.97796099  0.50417798    -0.11200
C502        C  0.22848231  0.01434061  0.50396003    -0.11200
C503        C  0.25906281  0.03364247  0.50474480     0.10900
C504        C  0.29657876  0.01542432  0.00913187    -0.11200
H505        H  0.32229241  0.96637880  0.00812860     0.14900
H506        H  0.20569983  0.96433476  0.50302840     0.14900
H507        H  0.20354929  0.02684535  0.50277180     0.14900
H508        H  0.32081099  0.02914068  0.00941162     0.14900
C509        C  0.31161063  0.86074021  0.44922056    -0.11200
C510        C  0.32664921  0.84971876  0.42734990    -0.12700
C511        C  0.33299514  0.83556559  0.07100568    -0.11200
C512        C  0.31710683  0.85156206  0.05194908    -0.12700
C513        C  0.26578787  0.92098754  0.50400697     0.88600
C514        C  0.29043207  0.90994284  0.97656250    -0.51700
C515        C  0.29674157  0.87529755  0.97452838     0.11500
C516        C  0.27877760  0.85449782  0.50121949     0.22500
C517        C  0.23735491  0.89850566  0.00415630    -0.52400
C518        C  0.24360157  0.86350022  0.00219741     0.11600
C519        C  0.28634674  0.90652366  0.53110154    -0.51900
C520        C  0.29324602  0.87194739  0.52954119     0.12200
H521        H  0.29911676  0.92833540  0.95953228     0.16700
H522        H  0.28462641  0.82629954  0.49986946     0.02400
H523        H  0.20705065  0.90841636  0.50413429     0.17000
H524        H  0.29483750  0.92238088  0.54982159     0.16800
C525        C  0.26684511  0.07344699  0.00744737     0.88600
C526        C  0.28005630  0.08721765  0.53078594    -0.51700
C527        C  0.28544063  0.12186828  0.52951088     0.11500
C528        C  0.27679443  0.14033480  0.00431193     0.22500
C529        C  0.23308290  0.09523040  0.00691011    -0.52400
C530        C  0.23828039  0.13045662  0.00507144     0.11600
C531        C  0.28640462  0.08542858  0.97903438    -0.51900
C532        C  0.29167462  0.12013736  0.97748931     0.12200
H533        H  0.28946858  0.07105998  0.54928608     0.16700
H534        H  0.28181174  0.16861158  0.00319027     0.02400
H535        H  0.20751302  0.08428422  0.00706664     0.17000
H536        H  0.29550316  0.06778791  0.96166226     0.16800
C537        C  0.92478908  0.74082284  0.50002996     0.88600
C538        C  0.91390866  0.71076364  0.97155919    -0.51700
C539        C  0.87969040  0.70408426  0.97349093     0.11500
C540        C  0.85877138  0.72890475  0.50232174     0.22500
C541        C  0.90238533  0.77428991  0.49958911    -0.52400
C542        C  0.87065144  0.75865156  0.00001988     0.11600
C543        C  0.91318001  0.72141352  0.52860286    -0.51900
C544        C  0.87897414  0.71506248  0.52966768     0.12200
H545        H  0.92979393  0.70146062  0.95302159     0.16700
H546        H  0.83086634  0.72297977  0.50356170     0.02400
H547        H  0.91261496  0.80026359  0.49775436     0.17000
H548        H  0.93078189  0.71273018  0.54623906     0.16800
C549        C  0.07945501  0.73221934  0.99782760     0.88600
C550        C  0.08620337  0.71479287  0.52893840    -0.51700
C551        C  0.12032355  0.70715945  0.53056404     0.11500
C552        C  0.14136151  0.72052461  0.50355581     0.22500
C553        C  0.09865492  0.76734028  0.50033662    -0.52400
C554        C  0.13322303  0.75976142  0.50203213     0.11600
C555        C  0.09440531  0.71060027  0.97181216    -0.51900
C556        C  0.12862620  0.70371975  0.97436594     0.12200
H557        H  0.06806366  0.70696762  0.54637316     0.16700
H558        H  0.16920128  0.71381309  0.50474591     0.02400
H559        H  0.09145994  0.79140119  0.99683311     0.17000
H560        H  0.07903050  0.70109781  0.95316609     0.16800
C561        C  0.73418802  0.92132107  0.00393438     0.88600
C562        C  0.70697647  0.91306800  0.52492117    -0.51700
C563        C  0.70285625  0.87818928  0.52627482     0.11500
C564        C  0.71815603  0.85863253  0.49920025     0.22500
C565        C  0.76022917  0.90521799  0.49657769    -0.52400
C566        C  0.75624280  0.86990984  0.49795790     0.11600
C567        C  0.71348788  0.90914319  0.97645700    -0.51900
C568        C  0.70799321  0.87444729  0.97581043     0.12200
H569        H  0.69739533  0.93028630  0.54241830     0.16700
H570        H  0.71425257  0.83017735  0.50062829     0.02400
H571        H  0.79338532  0.91026939  0.00215028     0.17000
H572        H  0.70382299  0.92665407  0.95901866     0.16800
C573        C  0.73182078  0.07409998  0.00370599     0.88600
C574        C  0.71022690  0.08683503  0.97663016    -0.51700
C575        C  0.70370896  0.12150505  0.97647785     0.11500
C576        C  0.71947040  0.14085345  0.00323262     0.22500
C577        C  0.76471469  0.09647573  0.00230968    -0.52400
C578        C  0.75827512  0.13163955  0.00206876     0.11600
C579        C  0.70044868  0.09050269  0.52614466    -0.51900
C580        C  0.69420775  0.12525430  0.52709395     0.12200
H581        H  0.70079293  0.06975727  0.95911977     0.16700
H582        H  0.71339530  0.16902984  0.00282105     0.02400
H583        H  0.79064143  0.08597705  0.00200511     0.17000
H584        H  0.69145548  0.07278721  0.54358896     0.16800
O585        O  0.83409741  0.63291290  0.81434963    -0.55700
C586        C  0.83074717  0.65087606  0.90687285     0.76900
O587        O  0.73317728  0.64713412  0.86338533    -0.56900
C588        C  0.81330133  0.62303226  0.79420092     0.76900
C589        C  0.78058261  0.55054880  0.86787409     0.79300
Cd590      Cd  0.79251448  0.62335765  0.85688553     1.37500
O591        O  0.84501558  0.64581737  0.88153162    -0.55700
O592        O  0.81061705  0.56268928  0.86483991    -0.54500
C593        C  0.74096920  0.67677787  0.85301810     0.79200
O594        O  0.75595295  0.57225212  0.86726377    -0.56900
O595        O  0.79985404  0.64137369  0.90967237    -0.55300
O596        O  0.78419072  0.61278038  0.80331712    -0.55300
O597        O  0.77167057  0.68093140  0.84442006    -0.54500
O598        O  0.63818656  0.83300487  0.81019010    -0.55700
C599        C  0.65481746  0.83191353  0.90574486     0.76900
O600        O  0.56292372  0.77690022  0.86762445    -0.56900
C601        C  0.62602291  0.81135914  0.79167562     0.76900
C602        C  0.66135812  0.73542623  0.85841307     0.79300
Cd603      Cd  0.62140730  0.79812050  0.85607886     1.37500
O604        O  0.65606569  0.84470622  0.87931156    -0.55700
O605        O  0.67329944  0.76425043  0.84975484    -0.54500
C606        C  0.54849341  0.80645330  0.86583132     0.79200
O607        O  0.62986322  0.73499013  0.86598255    -0.56900
O608        O  0.63717355  0.80484560  0.90936575    -0.55300
O609        O  0.61174414  0.78496540  0.80307508    -0.55300
O610        O  0.56790637  0.83205224  0.86088878    -0.54500
O611        O  0.62831647  0.16874981  0.81438595    -0.55700
C612        C  0.65036875  0.16908658  0.90792274     0.76900
O613        O  0.62759813  0.27002965  0.86815663    -0.56900
C614        C  0.61782646  0.19097058  0.79520084     0.76900
C615        C  0.54551658  0.21117985  0.87261280     0.79300
Cd616      Cd  0.61780345  0.20754531  0.85922380     1.37500
O617        O  0.65241987  0.15871803  0.88091772    -0.55700
O618        O  0.55989455  0.18260256  0.86594083    -0.54500
C619        C  0.65868399  0.26923732  0.85968925     0.79200
O620        O  0.56468264  0.23739403  0.87397852    -0.56900
O621        O  0.63248399  0.19600332  0.91255903    -0.55300
O622        O  0.60724904  0.21953074  0.80575336    -0.55300
O623        O  0.67037940  0.24024610  0.85094676    -0.54500
O624        O  0.83899567  0.34912196  0.87112266    -0.55700
C625        C  0.78876697  0.38757319  0.78686456     0.76900
O626        O  0.72953691  0.35743502  0.86257481    -0.56900
C627        C  0.82677007  0.34638912  0.89769717     0.76900
C628        C  0.79497593  0.45230120  0.86523480     0.79300
Cd629      Cd  0.78775920  0.38037878  0.85123238     1.37500
O630        O  0.81496840  0.37477004  0.80031735    -0.55700
O631        O  0.82028056  0.43296684  0.85840448    -0.54500
C632        C  0.73669277  0.32819626  0.85076384     0.79200
O633        O  0.76562997  0.43802996  0.86730576    -0.56900
O634        O  0.76376549  0.39723625  0.80319355    -0.55300
O635        O  0.79776550  0.36042782  0.90274936    -0.55300
O636        O  0.76640198  0.32426148  0.83951764    -0.54500
O637        O  0.16371517  0.64392195  0.88348770    -0.55700
C638        C  0.19333490  0.61940757  0.79703777     0.76900
O639        O  0.27614193  0.63057640  0.86939220    -0.56900
C640        C  0.17779105  0.64801431  0.90895252     0.76900
C641        C  0.21967074  0.54298196  0.87005693     0.79300
Cd642      Cd  0.21488990  0.61677584  0.85962202     1.37500
O643        O  0.17576180  0.63457517  0.81719823    -0.55700
O644        O  0.19081104  0.55846500  0.86838605    -0.54500
C645        C  0.27439536  0.66067652  0.85793685     0.79200
O646        O  0.24613650  0.56176308  0.86855907    -0.56900
O647        O  0.21988155  0.60311373  0.80598944    -0.55300
O648        O  0.20801768  0.63624529  0.91213895    -0.55300
O649        O  0.24564130  0.66983669  0.84693808    -0.54500
O650        O  0.37082240  0.83310135  0.80676984    -0.55700
C651        C  0.34846229  0.83202987  0.90319564     0.76900
O652        O  0.35870012  0.73525700  0.85917171    -0.56900
C653        C  0.38127614  0.80962348  0.78889429     0.76900
C654        C  0.45167467  0.78871723  0.86676105     0.79300
Cd655      Cd  0.37936833  0.79560874  0.85311224     1.37500
O656        O  0.35351641  0.84745199  0.87818239    -0.55700
O657        O  0.43794606  0.81784377  0.86059414    -0.54500
C658        C  0.32883694  0.74229960  0.84906590     0.79200
O659        O  0.43175003  0.76292446  0.86796892    -0.56900
O660        O  0.35880389  0.80097180  0.90528295    -0.55300
O661        O  0.39183511  0.78170443  0.80100911    -0.55300
O662        O  0.32309880  0.77323752  0.84080196    -0.54500
O663        O  0.17469957  0.36755706  0.79935446    -0.55700
C664        C  0.16571455  0.34029878  0.89681097     0.76900
O665        O  0.26226651  0.35304653  0.86204248    -0.56900
C666        C  0.19918601  0.38232676  0.78524181     0.76900
C667        C  0.19862672  0.44660562  0.86449307     0.79300
Cd668      Cd  0.20342125  0.37454580  0.84967963     1.37500
O669        O  0.15264578  0.34351992  0.87061099    -0.55700
O670        O  0.17256143  0.42909865  0.85712852    -0.54500
C671        C  0.25777449  0.32459210  0.84831066     0.79200
O672        O  0.22718685  0.43040175  0.86651550    -0.56900
O673        O  0.19483312  0.35374168  0.90109952    -0.55300
O674        O  0.22379814  0.39355993  0.80095716    -0.55300
O675        O  0.22921694  0.32046769  0.83520932    -0.54500
O676        O  0.34111993  0.15627739  0.88022284    -0.55700
C677        C  0.38037924  0.19926756  0.79589612     0.76900
O678        O  0.36620093  0.26596433  0.87323678    -0.56900
C679        C  0.34309409  0.16602765  0.90747917     0.76900
C680        C  0.44915243  0.19354487  0.87122899     0.79300
Cd681      Cd  0.37728630  0.20412182  0.86049025     1.37500
O682        O  0.36617042  0.17499667  0.81084532    -0.55700
O683        O  0.42980169  0.16904894  0.86325203    -0.54500
C684        C  0.33612395  0.26593620  0.86207281     0.79200
O685        O  0.43490049  0.22275723  0.87596904    -0.56900
O686        O  0.39261365  0.22406006  0.81081731    -0.55300
O687        O  0.36142367  0.19216193  0.91286118    -0.55300
O688        O  0.32589331  0.23770962  0.85091213    -0.54500
C689        C  0.92167369  0.26263387  0.99180726     0.88600
C690        C  0.90419575  0.28388916  0.52415896    -0.51700
C691        C  0.87003223  0.29190163  0.52399877     0.11500
C692        C  0.85577884  0.27715520  0.99361761     0.22500
C693        C  0.89863323  0.23050109  0.99331426    -0.52400
C694        C  0.86399813  0.23780554  0.99428871     0.11600
C695        C  0.90843455  0.28368081  0.96434372    -0.51900
C696        C  0.87416238  0.29100429  0.96524392     0.12200
H697        H  0.92121312  0.29315394  0.54171968     0.16700
H698        H  0.82791690  0.28384992  0.99415232     0.02400
H699        H  0.90910056  0.20432089  0.99417773     0.17000
H700        H  0.92457950  0.29316054  0.94610565     0.16800
C701        C  0.07145815  0.26027642  0.99242718     0.88600
C702        C  0.08531860  0.27997167  0.96453923    -0.51700
C703        C  0.11943170  0.28717410  0.96585269     0.11500
C704        C  0.13712645  0.27457090  0.99503445     0.22500
C705        C  0.09487032  0.22805336  0.99559148    -0.52400
C706        C  0.12939712  0.23529674  0.99677743     0.11600
C707        C  0.07808571  0.28246937  0.52326139    -0.51900
C708        C  0.11245984  0.28906279  0.52296478     0.12200
H709        H  0.06970067  0.28884141  0.94567056     0.16700
H710        H  0.16488071  0.28111755  0.99628410     0.02400
H711        H  0.08488862  0.20185015  0.99611036     0.17000
H712        H  0.06122228  0.29265578  0.54071627     0.16800
O713        O  0.84880569  0.65632079  0.62445372    -0.55700
C714        C  0.80249787  0.61509614  0.70846695     0.76900
O715        O  0.73915146  0.64346848  0.63371913    -0.56900
C716        C  0.83613867  0.65894524  0.59807175     0.76900
C717        C  0.80555088  0.55220862  0.62898831     0.79300
Cd718      Cd  0.79913597  0.62372075  0.64430334     1.37500
O719        O  0.82707603  0.63048497  0.69500835    -0.55700
O720        O  0.83135018  0.56996135  0.63665265    -0.54500
C721        C  0.74408821  0.67287965  0.64570775     0.73600
O722        O  0.77686683  0.56810880  0.62653569    -0.56900
O723        O  0.77849442  0.60363892  0.69220272    -0.55300
O724        O  0.80788113  0.64402770  0.59308984    -0.55300
O725        O  0.77350079  0.67840516  0.65677133    -0.54500
O726        O  0.63162521  0.81716825  0.69138892    -0.55700
C727        C  0.65225672  0.82971261  0.59538628     0.76900
O728        O  0.63162082  0.72714950  0.62798859    -0.56900
C729        C  0.61790466  0.79282701  0.70655452     0.76900
C730        C  0.54744797  0.79545384  0.62903640     0.79300
Cd731      Cd  0.61948045  0.78868409  0.64138697     1.37500
O732        O  0.65147688  0.84011168  0.62250487    -0.55700
O733        O  0.56506659  0.82064153  0.63832716    -0.54500
C734        C  0.66254062  0.72835509  0.63707194     0.79200
O735        O  0.56344601  0.76727600  0.62399195    -0.56900
O736        O  0.63716016  0.80166286  0.58967760    -0.55300
O737        O  0.60542669  0.76811026  0.69168082    -0.55300
O738        O  0.67257236  0.75694527  0.64765660    -0.54500
O739        O  0.63877029  0.15932423  0.62260166    -0.55700
C740        C  0.60949780  0.20791875  0.70959226     0.76900
O741        O  0.63764966  0.27072977  0.63443798    -0.56900
C742        C  0.64168338  0.17220334  0.59623018     0.76900
C743        C  0.54018741  0.21964516  0.63237537     0.79300
Cd744      Cd  0.61286052  0.21291224  0.64460325     1.37500
O745        O  0.61772894  0.18099422  0.69465870    -0.55700
O746        O  0.55432361  0.19078648  0.63887240    -0.54500
C747        C  0.66700290  0.26225763  0.64499370     0.79200
O748        O  0.55995627  0.24551613  0.62990037    -0.56900
O749        O  0.60264961  0.23501583  0.69450898    -0.55300
O750        O  0.62968944  0.20244057  0.59207580    -0.55300
O751        O  0.67069539  0.23160078  0.65481055    -0.54500
O752        O  0.83525894  0.34869283  0.61750855    -0.55700
C753        C  0.80294182  0.38160668  0.70124243     0.76900
O754        O  0.75694815  0.43791861  0.62555564    -0.56900
C755        C  0.82402767  0.34824345  0.59070469     0.76900
C756        C  0.72533985  0.34104211  0.63681919     0.79300
Cd757      Cd  0.78607769  0.38283106  0.63767789     1.37500
O758        O  0.82483207  0.37156777  0.68188052    -0.55700
O759        O  0.75340384  0.33054278  0.64833138    -0.54500
C760        C  0.78380664  0.45615453  0.62519651     0.79200
O761        O  0.72497933  0.37142535  0.62589240    -0.56900
O762        O  0.77438041  0.39249446  0.69105179    -0.55300
O763        O  0.79648447  0.36479428  0.58540223    -0.55300
O764        O  0.81216957  0.44031737  0.62925396    -0.54500
O765        O  0.17468322  0.62465101  0.69844993    -0.55700
C766        C  0.16276767  0.65217033  0.60054363     0.76900
O767        O  0.25950925  0.63428502  0.63576748    -0.56900
C768        C  0.19875976  0.60733710  0.71118323     0.76900
C769        C  0.19015223  0.54528172  0.63072489     0.79300
Cd770      Cd  0.19972699  0.61595707  0.64686334     1.37500
O771        O  0.14975744  0.64927478  0.62681687    -0.55700
O772        O  0.16555608  0.56423732  0.63994382    -0.54500
C773        C  0.25490922  0.66357887  0.64828710     0.79200
O774        O  0.21937061  0.55950067  0.62748143    -0.56900
O775        O  0.19153616  0.63756332  0.59587049    -0.55300
O776        O  0.22110891  0.59356143  0.69416002    -0.55300
O777        O  0.22571153  0.66964838  0.65984332    -0.54500
O778        O  0.34553395  0.82714064  0.62296294    -0.55700
C779        C  0.38568084  0.78528260  0.70478991     0.76900
O780        O  0.36603653  0.71577651  0.62630694    -0.56900
C781        C  0.34646343  0.81912162  0.59527040     0.76900
C782        C  0.45222665  0.77361818  0.62542304     0.79300
Cd783      Cd  0.38040944  0.77620290  0.64007844     1.37500
O784        O  0.37629971  0.81077169  0.68837724    -0.55700
O785        O  0.43718125  0.80171830  0.63240944    -0.54500
C786        C  0.33607898  0.71741447  0.63753733     0.79200
O787        O  0.43370190  0.74689910  0.62376786    -0.56900
O788        O  0.39217659  0.75722168  0.69134549    -0.55300
O789        O  0.36387622  0.79254942  0.58831557    -0.55300
O790        O  0.32730866  0.74582343  0.64959636    -0.54500
O791        O  0.14880835  0.34999155  0.61429730    -0.55700
C792        C  0.18530616  0.37354633  0.69972399     0.76900
O793        O  0.26332632  0.36231563  0.62409337    -0.56900
C794        C  0.16212974  0.34274554  0.58900676     0.76900
C795        C  0.20687937  0.44834223  0.62310820     0.79300
Cd796      Cd  0.20217875  0.37528159  0.63591515     1.37500
O797        O  0.16598523  0.35897289  0.68069881    -0.55700
O798        O  0.17847801  0.43448518  0.63007957    -0.54500
C799        C  0.26351315  0.33328004  0.63752856     0.79200
O800        O  0.23253058  0.42823588  0.62050863    -0.56900
O801        O  0.21116736  0.38922835  0.68910379    -0.55300
O802        O  0.19313022  0.35122582  0.58509504    -0.55300
O803        O  0.23564280  0.32413463  0.64999345    -0.54500
O804        O  0.35929855  0.16120379  0.69210612    -0.55700
C805        C  0.33897754  0.16644101  0.59781801     0.76900
O806        O  0.35071120  0.26024749  0.63902632    -0.56900
C807        C  0.37145911  0.18253894  0.71092178     0.76900
C808        C  0.44398729  0.19820670  0.63515299     0.79300
Cd809      Cd  0.37116216  0.19970979  0.64767052     1.37500
O810        O  0.34187758  0.15099228  0.62308076    -0.55700
O811        O  0.42635894  0.17100585  0.63839950    -0.54500
C812        C  0.32184507  0.25475968  0.65167892     0.79200
O813        O  0.42778072  0.22690330  0.63641074    -0.56900
O814        O  0.35215724  0.19614569  0.59533477    -0.55300
O815        O  0.38415305  0.21010650  0.70009687    -0.55300
O816        O  0.31704990  0.22497230  0.66280862    -0.54500
C817        C  0.29441738  0.31086271  0.63811404    -0.14300
C818        C  0.29401829  0.28064846  0.65321715    -0.29500
H819        H  0.31693017  0.31844144  0.62513532     0.14700
H820        H  0.27118695  0.27331179  0.66589974     0.15300
C821        C  0.18471800  0.50803152  0.62582746    -0.14300
C822        C  0.21081377  0.48612833  0.61987456    -0.29500
H823        H  0.15918403  0.49793250  0.63042514     0.14700
H824        H  0.23648265  0.49610202  0.61569070     0.15300
C825        C  0.28128234  0.69045461  0.64961694    -0.14300
C826        C  0.31230263  0.68789783  0.63649387    -0.29500
H827        H  0.27413328  0.71407476  0.66142359     0.14700
H828        H  0.31991287  0.66450254  0.62460284     0.15300
C829        C  0.50236896  0.22332073  0.62933925    -0.14300
C830        C  0.48172938  0.19562253  0.63161720    -0.29500
H831        H  0.49130777  0.24922717  0.62751146     0.14700
H832        H  0.49309118  0.16981612  0.63322139     0.15300
C833        C  0.69618398  0.28613051  0.64615776    -0.14300
C834        C  0.69468976  0.31886713  0.63586201    -0.29500
H835        H  0.72006074  0.27599977  0.65567069     0.14700
H836        H  0.67103760  0.32922384  0.62613690     0.15300
C837        C  0.50989474  0.79888093  0.62595062    -0.14300
C838        C  0.48973331  0.77145569  0.62095718    -0.29500
H839        H  0.49837409  0.82395772  0.63103227     0.14700
H840        H  0.50114714  0.74618302  0.61645608     0.15300
C841        C  0.80899038  0.51447046  0.62490857    -0.14300
C842        C  0.78141603  0.49411443  0.62174516    -0.29500
H843        H  0.83440288  0.50288913  0.62779572     0.14700
H844        H  0.75590699  0.50566568  0.61951216     0.15300
C845        C  0.71789428  0.70045709  0.64703530    -0.14300
C846        C  0.68608454  0.69817994  0.63546383    -0.29500
H847        H  0.72578121  0.72432100  0.65785430     0.14700
H848        H  0.67758984  0.67451095  0.62472778     0.15300
C849        C  0.12902664  0.30906196  0.54620553    -0.11200
C850        C  0.14334357  0.32504385  0.56583809    -0.12700
C851        C  0.97869194  0.25266872  0.96387808    -0.11200
C852        C  0.96012435  0.25383688  0.99118197     0.10900
C853        C  0.97299988  0.24966445  0.52426368    -0.11200
C854        C  0.00901360  0.24945659  0.52411507    -0.11200
C855        C  0.03300787  0.25208900  0.99137458     0.10900
C856        C  0.01463554  0.25179430  0.96396720    -0.11200
H857        H  0.96570558  0.25332934  0.94229779     0.14900
H858        H  0.95985603  0.24896575  0.54581817     0.14900
H859        H  0.02237058  0.24862086  0.54554600     0.14900
H860        H  0.02774158  0.25176140  0.94242177     0.14900
C861        C  0.85423354  0.31237078  0.54742036    -0.11200
C862        C  0.84117349  0.32915756  0.56731241    -0.12700
C863        C  0.38282825  0.20040616  0.76273045    -0.14300
C864        C  0.37021631  0.17643337  0.74396369    -0.29500
H865        H  0.39503867  0.22332824  0.75329958     0.14700
H866        H  0.35786411  0.15332933  0.75282303     0.15300
C867        C  0.17874773  0.37162982  0.73267839    -0.14300
C868        C  0.20069825  0.38633213  0.75211510    -0.29500
H869        H  0.15703436  0.35675286  0.74099517     0.14700
H870        H  0.22252602  0.40071519  0.74331004     0.15300
C871        C  0.14889330  0.32176027  0.92089091    -0.11200
C872        C  0.13631041  0.30599019  0.94177317    -0.12700
C873        C  0.28343296  0.29646502  0.84752692    -0.14300
C874        C  0.31367639  0.29699605  0.86213913    -0.29500
H875        H  0.27620168  0.27349061  0.83502419     0.14700
H876        H  0.32152485  0.31981262  0.87452607     0.15300
C877        C  0.38027226  0.81356980  0.75551790    -0.14300
C878        C  0.38897291  0.78648050  0.73796748    -0.29500
H879        H  0.37076628  0.83759623  0.74551071     0.14700
H880        H  0.39796544  0.76257473  0.74859513     0.15300
C881        C  0.18400534  0.62121587  0.76463371    -0.14300
C882        C  0.20248629  0.60343896  0.74416221    -0.29500
H883        H  0.16312034  0.63829504  0.75746931     0.14700
H884        H  0.22341185  0.58665209  0.75181636     0.15300
C885        C  0.22281575  0.50488057  0.87213172    -0.14300
C886        C  0.19535216  0.48431867  0.86906371    -0.29500
H887        H  0.24851198  0.49356480  0.87334121     0.14700
H888        H  0.16978215  0.49578695  0.86704185     0.15300
C889        C  0.30417034  0.68413974  0.85797249    -0.14300
C890        C  0.30121378  0.71660737  0.84714940    -0.29500
H891        H  0.32819542  0.67517831  0.86801266     0.14700
H892        H  0.27691441  0.72541435  0.83749408     0.15300
C893        C  0.78587297  0.39098843  0.75381198    -0.14300
C894        C  0.80986109  0.38006138  0.73408509    -0.29500
H895        H  0.76186049  0.40204684  0.74537036     0.14700
H896        H  0.83400090  0.36889988  0.74206830     0.15300
C897        C  0.84438396  0.32749692  0.92128302    -0.11200
C898        C  0.85749926  0.31099134  0.94159071    -0.12700
C899        C  0.60775964  0.20954777  0.74287819    -0.14300
C900        C  0.61830801  0.18451925  0.76215179    -0.29500
H901        H  0.59835693  0.23398137  0.75197222     0.14700
H902        H  0.62825591  0.16002608  0.75369580     0.15300
C903        C  0.50814993  0.21473039  0.87734326    -0.14300
C904        C  0.48664945  0.18819732  0.87321926    -0.29500
H905        H  0.49790222  0.24051359  0.88177168     0.14700
H906        H  0.49686398  0.16253083  0.86827609     0.15300
C907        C  0.68031551  0.30043121  0.86028102    -0.14300
C908        C  0.71270567  0.29904403  0.84991728    -0.29500
H909        H  0.66983647  0.32433002  0.86950732     0.14700
H910        H  0.72263211  0.27500916  0.84045511     0.15300
C911        C  0.62853102  0.81608992  0.75843904    -0.14300
C912        C  0.61598845  0.79179792  0.73986198    -0.29500
H913        H  0.64105213  0.83895652  0.74929744     0.14700
H914        H  0.60367023  0.76908330  0.74955785     0.15300
C915        C  0.51083615  0.81123741  0.86790432    -0.14300
C916        C  0.48919382  0.78444048  0.87095374    -0.29500
H917        H  0.50059603  0.83727873  0.86444048     0.14700
H918        H  0.49935909  0.75834512  0.87424747     0.15300
C919        C  0.82182956  0.62424712  0.76160174    -0.14300
C920        C  0.79986853  0.61091624  0.74146280    -0.29500
H921        H  0.84496220  0.63743525  0.75411587     0.14700
H922        H  0.77704260  0.59759763  0.74956695     0.15300
C923        C  0.80028041  0.48981533  0.86910937    -0.14300
C924        C  0.77426687  0.51291191  0.87061351    -0.29500
H925        H  0.82664409  0.49896021  0.86776794     0.14700
H926        H  0.74778780  0.50405181  0.87133690     0.15300
C927        C  0.71647419  0.70587512  0.85100927    -0.14300
C928        C  0.68344135  0.70416387  0.85983543    -0.29500
H929        H  0.72658456  0.73015210  0.84225615     0.14700
H930        H  0.67288932  0.68008199  0.86854240     0.15300
C931        C  0.80595515  0.21681077  0.01167531    -0.11200
C932        C  0.83712776  0.21037825  0.99645985     0.10900
C933        C  0.84244722  0.17751126  0.98354219    -0.11200
C934        C  0.81715618  0.15190853  0.98558337    -0.11200
C935        C  0.78584084  0.15845041  0.00060978     0.10900
C936        C  0.78069545  0.19119546  0.01376425    -0.11200
H937        H  0.80123713  0.24143265  0.02256821     0.14900
H938        H  0.86589483  0.17171066  0.97125706     0.14900
H939        H  0.82189605  0.12726522  0.97473130     0.14900
H940        H  0.75735674  0.19699176  0.02619170     0.14900
C941        C  0.68403785  0.13819885  0.95271109    -0.11200
C942        C  0.66817744  0.15172014  0.93226501    -0.12700
C943        C  0.65893878  0.15412731  0.57204203    -0.11200
C944        C  0.67476672  0.14105064  0.55141861    -0.12700
C945        C  0.70500775  0.97949920  0.00563384    -0.11200
C946        C  0.73623936  0.96083830  0.00452247     0.10900
C947        C  0.75725296  0.98487986  0.49490864    -0.11200
C948        C  0.75603374  0.02123585  0.49557492    -0.11200
C949        C  0.73508699  0.03460955  0.00415342     0.10900
C950        C  0.70444512  0.01552096  0.00545315    -0.11200
H951        H  0.68067875  0.96596831  0.00643890     0.14900
H952        H  0.78228529  0.97257995  0.49437000     0.14900
H953        H  0.78023687  0.03469111  0.49528659     0.14900
H954        H  0.67970230  0.02871345  0.00619869     0.14900
C955        C  0.68513606  0.86169922  0.55111586    -0.11200
C956        C  0.67003823  0.84820071  0.57187746    -0.12700
C957        C  0.67313174  0.84686206  0.93062141    -0.11200
C958        C  0.68897374  0.85863740  0.95158807    -0.12700
C959        C  0.14630282  0.67163225  0.57676029    -0.11200
C960        C  0.13470887  0.68795243  0.55569821    -0.12700
C961        C  0.14678029  0.68303904  0.95238526    -0.11200
C962        C  0.16072087  0.66622119  0.93294746    -0.12700
C963        C  0.81722417  0.85230927  0.51180452    -0.11200
C964        C  0.78566827  0.84474100  0.49773881     0.10900
C965        C  0.78207710  0.81253823  0.48357485    -0.11200
C966        C  0.81171860  0.78062450  0.98585422    -0.11200
C967        C  0.84356912  0.78636384  0.99990508     0.10900
C968        C  0.84419604  0.82780932  0.51227811    -0.11200
H969        H  0.82077577  0.87678957  0.52314522     0.14900
H970        H  0.75857813  0.80620016  0.47178150     0.14900
H971        H  0.80694645  0.75663288  0.97409252     0.14900
H972        H  0.86780923  0.83398061  0.52397210     0.14900
C973        C  0.98162003  0.71056233  0.49855458    -0.11200
C974        C  0.96382570  0.74246325  0.49888936     0.10900
C975        C  0.98530577  0.76653759  0.99549323    -0.11200
C976        C  0.02158451  0.76661345  0.99525190    -0.11200
C977        C  0.03673110  0.73952889  0.49880912     0.10900
C978        C  0.01720111  0.70913720  0.49843188    -0.11200
H979        H  0.96771049  0.68631937  0.49871095     0.14900
H980        H  0.97194373  0.79118740  0.99564409     0.14900
H981        H  0.03448725  0.79128473  0.99530653     0.14900
H982        H  0.02969612  0.68389246  0.49851430     0.14900
C983        C  0.86212793  0.68400657  0.95092208    -0.11200
C984        C  0.84827937  0.66788334  0.93113854    -0.12700
C985        C  0.86400958  0.69554201  0.55408714    -0.11200
C986        C  0.85235315  0.67867759  0.57461148    -0.12700
C987        C  0.21466297  0.18752975  0.98601537    -0.11200
C988        C  0.20980514  0.15675451  0.00267084     0.10900
C989        C  0.17783824  0.15166351  0.01699505    -0.11200
C990        C  0.15166437  0.17693539  0.01501739    -0.11200
C991        C  0.15684115  0.20794632  0.99872582     0.10900
C992        C  0.18860467  0.21278260  0.98413910    -0.11200
H993        H  0.23847770  0.19199896  0.97393084     0.14900
H994        H  0.17324917  0.12847140  0.03025848     0.14900
H995        H  0.12761989  0.17247884  0.02677209     0.14900
H996        H  0.19320111  0.23588829  0.97075746     0.14900
C997        C  0.30464194  0.13913165  0.55264337    -0.11200
C998        C  0.32080258  0.15143249  0.57307343    -0.12700
C999        C  0.30970616  0.13597127  0.95250240    -0.11200
C1000       C  0.32493195  0.14882518  0.93150398    -0.12700
C1001       C  0.21683321  0.80619625  0.51811074    -0.11200
C1002       C  0.21578440  0.83709445  0.00200952     0.10900
C1003       C  0.18486141  0.84301928  0.98621479    -0.11200
C1004       C  0.15907387  0.81777464  0.98581514    -0.11200
C1005       C  0.16034824  0.78667912  0.50206753     0.10900
C1006       C  0.19092444  0.78128211  0.51843728    -0.11200
H1007       H  0.23991510  0.80156351  0.53129652     0.14900
H1008       H  0.18089985  0.86690478  0.97363906     0.14900
H1009       H  0.13597870  0.82283740  0.97278995     0.14900
H1010       H  0.19466547  0.75804878  0.53193957     0.14900
C1011       C  0.29195664  0.97975927  0.50651019    -0.11200
C1012       C  0.26694174  0.96009315  0.00730075     0.10900
C1013       C  0.23526098  0.97833915  0.00774502    -0.11200
C1014       C  0.23439192  0.01479709  0.00848431    -0.11200
C1015       C  0.26517295  0.03388852  0.00877179     0.10900
C1016       C  0.29067533  0.01567120  0.50617736    -0.11200
H1017       H  0.31694632  0.96703862  0.50726537     0.14900
H1018       H  0.21098675  0.96499988  0.00708353     0.14900
H1019       H  0.20955222  0.02755778  0.00832324     0.14900
H1020       H  0.31474361  0.02967184  0.50674511     0.14900
C1021       C  0.31557481  0.86049550  0.94941462    -0.11200
C1022       C  0.33105363  0.84843692  0.92815199    -0.12700
C1023       C  0.32806154  0.83869257  0.57256807    -0.11200
C1024       C  0.31225378  0.85372130  0.55288427    -0.12700
loop_ 
_geom_bond_atom_site_label_1 
_geom_bond_atom_site_label_2 
_geom_bond_distance 
_geom_bond_site_symmetry_2 
_ccdc_geom_bond_type 
C1            C7   1.541       .  S
C1          C514   1.539   1_554  S
C1          C517   1.548       .  S
C1         C1012   1.529       .  S
C2          C513   1.537       .  S
C2            H9   1.087       .  S
C2            C3   1.357       .  D
C3          C516   1.538       .  S
C3          C509   1.444       .  S
C4            C8   1.535       .  S
C4          C515   1.538   1_554  S
C4          C518   1.544       .  S
C4           H10   1.111   1_554  S
C5          C513   1.543       .  S
C5          H523   1.082       .  S
C5            C6   1.370       .  D
C6          C516   1.543       .  S
C6          C490   1.482       .  S
C7           H12   1.087       .  S
C7            C8   1.360       .  D
C8          C512   1.446       .  S
H11         C517   1.082       .  S
C13          C19   1.537       .  S
C13          C17   1.547       .  S
C13         C526   1.534       .  S
C13         C503   1.519       .  S
C14         C525   1.538       .  S
C14          H21   1.087       .  S
C14          C15   1.359       .  D
C15         C528   1.537       .  S
C15         C485   1.446       .  S
C16          C20   1.533       .  S
C16          C18   1.545       .  S
C16         C527   1.535       .  S
C16          H22   1.111       .  S
C17          H23   1.082       .  S
C17          C18   1.375       .  D
C18         C476   1.489       .  S
C19          H24   1.087       .  S
C19          C20   1.357       .  D
C20         C487   1.440       .  S
C25          C31   1.539   1_556  S
C25          C29   1.547       .  S
C25         C538   1.539       .  S
C25         C462   1.525       .  S
C26         C537   1.536       .  S
C26          H33   1.087       .  S
C26          C27   1.354       .  D
C27         C540   1.531       .  S
C27         C471   1.436       .  S
C28          C32   1.536       .  S
C28         C539   1.535   1_554  S
C28         C542   1.546       .  S
C28          H34   1.110       .  S
C29          H35   1.082       .  S
C29         C542   1.376   1_556  D
C30         C540   1.546       .  S
C30         C541   1.379       .  D
C30         C455   1.492       .  S
C31          H36   1.087       .  S
C31          C32   1.358       .  D
C32         C473   1.445       .  S
C37          C43   1.540       .  S
C37         C550   1.538       .  S
C37         C553   1.542       .  S
C37         C977   1.520       .  S
C38         C549   1.537   1_554  S
C38          H45   1.087       .  S
C38          C39   1.356       .  D
C39          C40   1.535       .  S
C39         C448   1.442       .  S
C40          C42   1.548       .  S
C40         C556   1.535   1_554  S
C40          H46   1.110       .  S
C41         C549   1.548       .  S
C41         H559   1.082       .  S
C41          C42   1.378   1_556  D
C42         C493   1.496       .  S
C43          H48   1.087       .  S
C43          C44   1.359       .  D
C44         C552   1.535       .  S
C44         C449   1.444       .  S
H47         C553   1.082       .  S
C49          C55   1.540       .  S
C49         C562   1.537       .  S
C49         C565   1.549       .  S
C49         C434   1.527       .  S
C50         C561   1.539       .  S
C50          H57   1.087       .  S
C50          C51   1.359       .  D
C51          C52   1.537       .  S
C51         C443   1.446       .  S
C52          C54   1.547       .  S
C52         C568   1.536   1_554  S
C52          H58   1.110       .  S
C53         C561   1.548       .  S
C53         H571   1.082       .  S
C53          C54   1.376       .  D
C54         C452   1.495       .  S
C55          H60   1.087       .  S
C55          C56   1.361       .  D
C56         C564   1.536       .  S
C56         C446   1.447       .  S
H59         C565   1.082       .  S
C61          C62   1.537       .  S
C61          C65   1.546       .  S
C61         C579   1.540       .  S
C61         C437   1.528       .  S
C62          H69   1.087       .  S
C62          C63   1.359       .  D
C63          C64   1.538       .  S
C63         C429   1.445       .  S
C64          C66   1.549       .  S
C64         C580   1.539       .  S
C64          H70   1.110       .  S
C65          H71   1.080       .  S
C65          C66   1.374       .  D
C66         C423   1.499       .  S
C67         C573   1.537       .  S
C67          H72   1.087       .  S
C67          C68   1.357       .  D
C68         C576   1.535       .  S
C68         C432   1.441       .  S
O73          C76   1.269       .  A
O73         Cd78   2.506       .  S
C74          O83   1.263       .  A
C74          O79   1.268       .  A
C74         C472   1.431       .  S
O75          C81   1.270       .  A
O75         Cd78   2.489       .  S
C76         C407   1.480       .  S
C76          O84   1.266       .  A
C77         C412   1.473       .  S
C77          O82   1.269       .  A
C77          O80   1.265       .  A
Cd78         O85   2.415       .  S
Cd78         O84   2.408       .  S
Cd78         O83   2.438       .  S
Cd78         O79   2.459       .  S
Cd78         O82   2.472       .  S
Cd78         O80   2.440       .  S
C81         C415   1.469       .  S
C81          O85   1.263       .  A
O86          C89   1.267       .  A
O86         Cd91   2.515       .  S
C87          O96   1.262       .  A
C87          O92   1.266       .  A
C87         C445   1.442       .  S
O88          C94   1.264       .  A
O88         Cd91   2.478       .  S
C89         C399   1.483       .  S
C89          O97   1.265       .  A
C90         C416   1.475       .  S
C90          O95   1.267       .  A
C90          O93   1.265       .  A
Cd91         O98   2.481       .  S
Cd91         O97   2.439       .  S
Cd91         O96   2.472       .  S
Cd91         O92   2.491       .  S
Cd91         O95   2.488       .  S
Cd91         O93   2.424       .  S
C94         C403   1.479       .  S
C94          O98   1.266       .  A
O99         C102   1.270       .  A
O99        Cd104   2.516       .  S
C100        O109   1.263       .  A
C100        O105   1.267       .  A
C100        C430   1.438       .  S
O101        C107   1.266       .  A
O101       Cd104   2.479       .  S
C102        C388   1.473       .  S
C102        O110   1.262       .  A
C103        C391   1.473       .  S
C103        O108   1.265       .  A
C103        O106   1.268       .  A
Cd104       O111   2.415       .  S
Cd104       O110   2.417       .  S
Cd104       O109   2.453       .  S
Cd104       O105   2.486       .  S
Cd104       O108   2.458       .  S
Cd104       O106   2.447       .  S
C107        C395   1.472       .  S
C107        O111   1.265       .  A
O112        C115   1.269       .  A
O112       Cd117   2.485       .  S
C113        C381   1.475       .  S
C113        O122   1.263       .  A
C113        O118   1.271       .  A
O114        C120   1.269       .  A
O114       Cd117   2.480       .  S
C115        O123   1.263       .  A
C115        C385   1.438       .  S
C116        C411   1.475       .  S
C116        O121   1.267       .  A
C116        O119   1.268       .  A
Cd117       O124   2.410       .  S
Cd117       O123   2.441       .  S
Cd117       O122   2.412       .  S
Cd117       O118   2.525       .  S
Cd117       O121   2.464       .  S
Cd117       O119   2.451       .  S
C120        C396   1.465       .  S
C120        O124   1.262       .  A
O125        C128   1.267       .  A
O125       Cd130   2.485       .  S
C126        C369   1.476       .  S
C126        O135   1.263       .  A
C126        O131   1.270       .  A
O127        C133   1.266       .  A
O127       Cd130   2.489       .  S
C128        O136   1.263       .  A
C128        C450   1.438       .  S
C129        C373   1.471       .  S
C129        O134   1.266       .  A
C129        O132   1.267       .  A
Cd130       O137   2.410       .  S
Cd130       O136   2.455       .  S
Cd130       O135   2.425       .  S
Cd130       O131   2.523       .  S
Cd130       O134   2.458       .  S
Cd130       O132   2.439       .  S
C133        C377   1.474       .  S
C133        O137   1.265       .  A
O138        C141   1.272       .  A
O138       Cd143   2.522       .  S
C139        O148   1.263       .  A
C139        O144   1.271       .  A
C139        C510   1.439       .  S
O140        C146   1.271       .  A
O140       Cd143   2.480       .  S
C141        C365   1.485       .  S
C141        O149   1.265       .  A
C142        C404   1.478       .  S
C142        O147   1.270       .  A
C142        O145   1.266       .  A
Cd143       O150   2.402       .  S
Cd143       O149   2.417       .  S
Cd143       O148   2.438       .  S
Cd143       O144   2.488       .  S
Cd143       O147   2.475       .  S
Cd143       O145   2.450       .  S
C146        C378   1.466       .  S
C146        O150   1.264       .  A
O151        C154   1.270       .  A
O151       Cd156   2.525       .  S
C152        O161   1.262       .  A
C152        O157   1.268       .  A
C152        C359   1.438       .  S
O153        C159   1.267       .  A
O153       Cd156   2.488       .  S
C154        C356   1.475       .  S
C154        O162   1.263       .  A
C155        C374   1.470       .  S
C155        O160   1.267       .  A
C155        O158   1.264       .  A
Cd156       O163   2.410       .  S
Cd156       O162   2.422       .  S
Cd156       O161   2.446       .  S
Cd156       O157   2.487       .  S
Cd156       O160   2.459       .  S
Cd156       O158   2.449       .  S
C159        C361   1.475       .  S
C159        O163   1.266       .  A
O164        C167   1.269       .  A
O164       Cd169   2.466       .  S
C165        C351   1.480       .  S
C165        O174   1.266       .  A
C165        O170   1.270       .  A
O166        C172   1.271       .  A
O166       Cd169   2.492       .  S
C167        O175   1.264       .  A
C167        C488   1.434       .  S
C168        C392   1.471       .  S
C168        O173   1.270       .  A
C168        O171   1.264       .  A
Cd169       O176   2.399       .  S
Cd169       O175   2.438       .  S
Cd169       O174   2.409       .  S
Cd169       O170   2.504       .  S
Cd169       O173   2.473       .  S
Cd169       O171   2.430       .  S
C172        C362   1.467       .  S
C172        O176   1.263       .  A
C177        C183   1.542       .  S
C177        C181   1.539       .  S
C177        C690   1.544       .  S
C177        C340   1.530       .  S
C178        C689   1.543   1_554  S
C178        H185   1.086       .  S
C178        C179   1.361       .  D
C179        C692   1.538   1_554  S
C179        C349   1.447       .  S
C180        C184   1.537       .  S
C180        C182   1.546       .  S
C180        C691   1.533       .  S
C180        H186   1.110       .  S
C181        H187   1.085       .  S
C181        C182   1.374       .  D
C182        C420   1.497       .  S
C183        H188   1.086       .  S
C183        C184   1.358       .  D
C184        C386   1.444       .  S
C189        C190   1.545       .  S
C189        C193   1.537       .  S
C189        C707   1.545       .  S
C189        C343   1.529       .  S
C190        H197   1.085       .  S
C190        C191   1.359       .  D
C191        C192   1.534       .  S
C191        C360   1.444       .  S
C192        C194   1.544       .  S
C192        C708   1.535       .  S
C192        H198   1.111       .  S
C193        H199   1.086       .  S
C193        C194   1.371       .  D
C194        C479   1.489       .  S
C195        C701   1.542   1_554  S
C195        H200   1.086       .  S
C195        C196   1.360       .  D
C196        C704   1.540   1_554  S
C196        C337   1.449       .  S
O201        C204   1.270       .  A
O201       Cd206   2.480       .  S
C202        C408   1.471       .  S
C202        O211   1.263       .  A
C202        O207   1.272       .  A
O203        C209   1.271       .  A
O203       Cd206   2.491       .  S
C204        O212   1.264       .  A
C204        C474   1.438       .  S
C205        C329   1.476       .  S
C205        O210   1.271       .  A
C205        O208   1.266       .  A
Cd206       O213   2.402       .  S
Cd206       O212   2.440       .  S
Cd206       O211   2.400       .  S
Cd206       O207   2.511       .  S
Cd206       O210   2.481       .  S
Cd206       O208   2.439       .  S
C209        C333   1.467       .  S
C209        O213   1.263       .  A
O214        C217   1.271       .  A
O214       Cd219   2.522       .  S
C215        O224   1.263       .  A
C215        O220   1.269       .  A
C215        C444   1.440       .  S
O216        C222   1.268       .  A
O216       Cd219   2.487       .  S
C217        C400   1.476       .  S
C217        O225   1.263       .  A
C218        C325   1.470       .  S
C218        O223   1.268       .  A
C218        O221   1.265       .  A
Cd219       O226   2.408       .  S
Cd219       O225   2.417       .  S
Cd219       O224   2.450       .  S
Cd219       O220   2.490       .  S
Cd219       O223   2.458       .  S
Cd219       O221   2.442       .  S
C222        C334   1.475       .  S
C222        O226   1.266       .  A
O227        C230   1.267       .  A
O227       Cd232   2.475       .  S
C228        C387   1.480       .  S
C228        O237   1.265       .  A
C228        O233   1.268       .  A
O229        C235   1.267       .  A
O229       Cd232   2.493       .  S
C230        O238   1.263       .  A
C230        C431   1.435       .  S
C231        C317   1.472       .  S
C231        O236   1.268       .  A
C231        O234   1.265       .  A
Cd232       O239   2.413       .  S
Cd232       O238   2.443       .  S
Cd232       O237   2.425       .  S
Cd232       O233   2.505       .  S
Cd232       O236   2.462       .  S
Cd232       O234   2.449       .  S
C235        C321   1.476       .  S
C235        O239   1.265       .  A
O240        C243   1.269       .  A
O240       Cd245   2.494       .  S
C241        C382   1.484       .  S
C241        O250   1.264       .  A
C241        O246   1.269       .  A
O242        C248   1.266       .  A
O242       Cd245   2.473       .  S
C243        O251   1.263       .  A
C243        C350   1.441       .  S
C244        C322   1.469       .  S
C244        O249   1.269       .  A
C244        O247   1.263       .  A
Cd245       O252   2.464       .  S
Cd245       O251   2.455       .  S
Cd245       O250   2.424       .  S
Cd245       O246   2.526       .  S
Cd245       O249   2.492       .  S
Cd245       O247   2.418       .  S
C248        C330   1.479       .  S
C248        O252   1.267       .  A
O253        C256   1.270       .  A
O253       Cd258   2.507       .  S
C254        O263   1.263       .  A
C254        O259   1.269       .  A
C254        C447   1.436       .  S
O255        C261   1.272       .  A
O255       Cd258   2.500       .  S
C256        C370   1.483       .  S
C256        O264   1.266       .  A
C257        C309   1.475       .  S
C257        O262   1.270       .  A
C257        O260   1.265       .  A
Cd258       O265   2.394       .  S
Cd258       O264   2.424       .  S
Cd258       O263   2.439       .  S
Cd258       O259   2.478       .  S
Cd258       O262   2.481       .  S
Cd258       O260   2.441       .  S
C261        C313   1.467       .  S
C261        O265   1.262       .  A
O266        C269   1.266       .  A
O266       Cd271   2.485       .  S
C267        C366   1.477       .  S
C267        O276   1.263       .  A
C267        O272   1.268       .  A
O268        C274   1.265       .  A
O268       Cd271   2.495       .  S
C269        O277   1.263       .  A
C269        C511   1.439       .  S
C270        C326   1.471       .  S
C270        O275   1.264       .  A
C270        O273   1.266       .  A
Cd271       O278   2.420       .  S
Cd271       O277   2.465       .  S
Cd271       O276   2.436       .  S
Cd271       O272   2.525       .  S
Cd271       O275   2.463       .  S
Cd271       O273   2.446       .  S
C274        C314   1.476       .  S
C274        O278   1.265       .  A
O279        C282   1.268       .  A
O279       Cd284   2.499       .  S
C280        C355   1.484       .  S
C280        O289   1.264       .  A
C280        O285   1.270       .  A
O281        C287   1.267       .  A
O281       Cd284   2.467       .  S
C282        O290   1.262       .  A
C282        C338   1.443       .  S
C283        C310   1.476       .  S
C283        O288   1.265       .  A
C283        O286   1.268       .  A
Cd284       O291   2.421       .  S
Cd284       O290   2.464       .  S
Cd284       O289   2.417       .  S
Cd284       O285   2.526       .  S
Cd284       O288   2.459       .  S
Cd284       O286   2.466       .  S
C287        C305   1.465       .  S
C287        O291   1.263       .  A
O292        C295   1.270       .  A
O292       Cd297   2.516       .  S
C293        O302   1.263       .  A
C293        O298   1.267       .  A
C293        C486   1.440       .  S
O294        C300   1.267       .  A
O294       Cd297   2.479       .  S
C295        C352   1.471       .  S
C295        O303   1.262       .  A
C296        C318   1.473       .  S
C296        O301   1.265       .  A
C296        O299   1.267       .  A
Cd297       O304   2.409       .  S
Cd297       O303   2.413       .  S
Cd297       O302   2.455       .  S
Cd297       O298   2.486       .  S
Cd297       O301   2.459       .  S
Cd297       O299   2.455       .  S
C300        C306   1.471       .  S
C300        O304   1.265       .  A
C305        H307   1.087       .  S
C305        C306   1.342       .  D
C306        H308   1.086       .  S
C309        H311   1.087       .  S
C309        C310   1.342       .  D
C310        H312   1.087       .  S
C313        H315   1.087       .  S
C313        C314   1.341       .  D
C314        H316   1.086       .  S
C317        H319   1.087       .  S
C317        C318   1.342       .  D
C318        H320   1.087       .  S
C321        H323   1.086       .  S
C321        C322   1.343       .  D
C322        H324   1.087       .  S
C325        H327   1.087       .  S
C325        C326   1.342       .  D
C326        H328   1.087       .  S
C329        H331   1.087       .  S
C329        C330   1.344       .  D
C330        H332   1.086       .  S
C333        H335   1.087       .  S
C333        C334   1.342       .  D
C334        H336   1.086       .  S
C337        C338   1.210       .  T
C339        C340   1.408       .  A
C339        C344   1.398   1_655  A
C339        H345   1.082       .  S
C340        C853   1.408       .  A
C341        C342   1.399   1_655  A
C341        C852   1.408   1_554  A
C341        H346   1.082       .  S
C342        C855   1.408   1_554  A
C342        H347   1.083       .  S
C343        C344   1.408       .  A
C343        C854   1.407       .  A
C344        H348   1.082       .  S
C349        C350   1.209       .  T
C351        H353   1.086       .  S
C351        C352   1.344       .  D
C352        H354   1.087       .  S
C355        H357   1.086       .  S
C355        C356   1.347       .  D
C356        H358   1.087       .  S
C359        C360   1.207       .  T
C361        H363   1.086       .  S
C361        C362   1.342       .  D
C362        H364   1.087       .  S
C365        H367   1.086       .  S
C365        C366   1.348       .  D
C366        H368   1.087       .  S
C369        H371   1.087       .  S
C369        C370   1.346       .  D
C370        H372   1.086       .  S
C373        H375   1.087       .  S
C373        C374   1.342       .  D
C374        H376   1.087       .  S
C377        H379   1.086       .  S
C377        C378   1.341       .  D
C378        H380   1.087       .  S
C381        H383   1.087       .  S
C381        C382   1.346       .  D
C382        H384   1.086       .  S
C385        C386   1.207       .  T
C387        H389   1.086       .  S
C387        C388   1.344       .  D
C388        H390   1.087       .  S
C391        H393   1.087       .  S
C391        C392   1.341       .  D
C392        H394   1.087       .  S
C395        H397   1.086       .  S
C395        C396   1.341       .  D
C396        H398   1.087       .  S
C399        H401   1.086       .  S
C399        C400   1.345       .  D
C400        H402   1.087       .  S
C403        H405   1.087       .  S
C403        C404   1.344       .  D
C404        H406   1.087       .  S
C407        H409   1.086       .  S
C407        C408   1.344       .  D
C408        H410   1.087       .  S
C411        H413   1.087       .  S
C411        C412   1.342       .  D
C412        H414   1.087       .  S
C415        H417   1.087       .  S
C415        C416   1.342       .  D
C416        H418   1.086       .  S
C419        C420   1.407       .  A
C419        C424   1.403       .  A
C419        H425   1.082       .  S
C420        C421   1.406       .  A
C421        C422   1.401       .  A
C421        H426   1.082       .  S
C422        C423   1.409       .  A
C422        H427   1.082       .  S
C423        C424   1.406       .  A
C424        H428   1.082       .  S
C429        C430   1.208       .  T
C431        C432   1.206       .  T
C433        C434   1.406       .  A
C433        C438   1.392   1_565  A
C433        H439   1.083       .  S
C434        C947   1.409       .  A
C435        C436   1.407   1_565  A
C435        C946   1.410       .  A
C435        H440   1.079       .  S
C436        C949   1.410       .  A
C436        H441   1.078       .  S
C437        C438   1.406       .  A
C437        C948   1.411       .  A
C438        H442   1.083       .  S
C443        C444   1.209       .  T
C445        C446   1.209       .  T
C447        C448   1.206       .  T
C449        C450   1.208       .  T
C451        C452   1.408       .  A
C451        C456   1.403       .  A
C451        H457   1.082       .  S
C452        C453   1.406   1_554  A
C453        C966   1.399       .  A
C453        H458   1.082       .  S
C454        C455   1.406       .  A
C454        C965   1.397       .  A
C454        H459   1.082       .  S
C455        C968   1.406       .  A
C456        C967   1.406   1_554  A
C456        H460   1.083       .  S
C461        C462   1.404       .  A
C461        C466   1.386   1_655  A
C461        H467   1.084       .  S
C462        C975   1.411       .  A
C463        C464   1.407   1_655  A
C463        C974   1.407       .  A
C463        H468   1.080       .  S
C464        C977   1.413       .  A
C464        H469   1.078       .  S
C465        C549   1.525       .  S
C465        C466   1.405       .  A
C465        C976   1.410       .  A
C466        H470   1.084       .  S
C471        C472   1.203       .  T
C473        C474   1.208       .  T
C475        C476   1.405       .  A
C475        C480   1.398       .  A
C475        H481   1.083       .  S
C476        C477   1.406       .  A
C477        C478   1.401       .  A
C477        H482   1.083       .  S
C478        C479   1.407       .  A
C478        H483   1.083       .  S
C479        C480   1.404       .  A
C480        H484   1.083       .  S
C485        C486   1.208       .  T
C487        C488   1.205       .  T
C489        C494   1.400       .  A
C489       C1002   1.404       .  A
C489        H495   1.083       .  S
C490        C491   1.405       .  A
C490       C1001   1.403       .  A
C491        C492   1.398       .  A
C491        H496   1.083       .  S
C492       C1005   1.406       .  A
C492        H497   1.082       .  S
C493        C494   1.407       .  A
C493       C1004   1.408   1_554  A
C494        H498   1.082       .  S
C499        C504   1.391   1_565  A
C499       C1012   1.405       .  A
C499        H505   1.083       .  S
C500        C513   1.521       .  S
C500        C501   1.411       .  A
C500       C1011   1.403       .  A
C501        C502   1.403   1_565  A
C501        H506   1.078       .  S
C502        C503   1.407       .  A
C502        H507   1.079       .  S
C503       C1016   1.405       .  A
C504       C1015   1.406       .  A
C504        H508   1.083       .  S
C509        C510   1.208       .  T
C511        C512   1.208       .  T
C513        C519   1.540       .  S
C514        H521   1.087       .  S
C514        C515   1.360       .  D
C515       C1021   1.448       .  S
C516        C520   1.537       .  S
C516        H522   1.111       .  S
C517        C518   1.373       .  D
C518       C1002   1.491       .  S
C519        H524   1.087       .  S
C519        C520   1.360       .  D
C520       C1024   1.445       .  S
C525        C531   1.539   1_554  S
C525        C529   1.551       .  S
C525       C1015   1.528       .  S
C526        H533   1.087       .  S
C526        C527   1.355       .  D
C527        C997   1.438       .  S
C528        C532   1.534   1_554  S
C528        C530   1.547       .  S
C528        H534   1.110       .  S
C529        H535   1.082       .  S
C529        C530   1.377       .  D
C530        C988   1.497       .  S
C531        H536   1.087       .  S
C531        C532   1.357       .  D
C532        C999   1.443       .  S
C537        C543   1.534       .  S
C537        C541   1.550       .  S
C537        C974   1.518       .  S
C538        H545   1.087       .  S
C538        C539   1.358       .  D
C539        C983   1.444       .  S
C540        C544   1.533       .  S
C540        H546   1.110       .  S
C541        H547   1.083       .  S
C542        C967   1.492   1_554  S
C543        H548   1.087       .  S
C543        C544   1.353       .  D
C544        C985   1.438       .  S
C549        C555   1.537       .  S
C550        H557   1.087       .  S
C550        C551   1.356       .  D
C551        C552   1.536       .  S
C551        C960   1.443       .  S
C552        C554   1.544       .  S
C552        H558   1.110       .  S
C553        C554   1.373       .  D
C554       C1005   1.485       .  S
C555        H560   1.087       .  S
C555        C556   1.357       .  D
C556        C961   1.442       .  S
C561        C567   1.537   1_554  S
C561        C946   1.527       .  S
C562        H569   1.087       .  S
C562        C563   1.357       .  D
C563        C564   1.537       .  S
C563        C955   1.443       .  S
C564        C566   1.546       .  S
C564        H570   1.110       .  S
C565        C566   1.373       .  D
C566        C964   1.492       .  S
C567        H572   1.087       .  S
C567        C568   1.357       .  D
C568        C958   1.444       .  S
C573        C574   1.539   1_554  S
C573        C577   1.549       .  S
C573        C949   1.527       .  S
C574        H581   1.087       .  S
C574        C575   1.358       .  D
C575        C576   1.535   1_556  S
C575        C941   1.445       .  S
C576        C578   1.546       .  S
C576        H582   1.110       .  S
C577        H583   1.082       .  S
C577        C578   1.377       .  D
C578        C935   1.496       .  S
C579        H584   1.087       .  S
C579        C580   1.361       .  D
C580        C944   1.449       .  S
O585        C588   1.267       .  A
O585       Cd590   2.506       .  S
C586        O595   1.263       .  A
C586        O591   1.266       .  A
C586        C984   1.438       .  S
O587        C593   1.268       .  A
O587       Cd590   2.489       .  S
C588        C919   1.481       .  S
C588        O596   1.265       .  A
C589        C924   1.478       .  S
C589        O594   1.265       .  A
C589        O592   1.267       .  A
Cd590       O597   2.417       .  S
Cd590       O596   2.432       .  S
Cd590       O595   2.460       .  S
Cd590       O591   2.479       .  S
Cd590       O594   2.479       .  S
Cd590       O592   2.460       .  S
C593        C927   1.467       .  S
C593        O597   1.262       .  A
O598        C601   1.269       .  A
O598       Cd603   2.517       .  S
C599        O608   1.263       .  A
C599        O604   1.268       .  A
C599        C957   1.438       .  S
O600        C606   1.267       .  A
O600       Cd603   2.472       .  S
C601        C911   1.484       .  S
C601        O609   1.265       .  A
C602        C928   1.474       .  S
C602        O607   1.268       .  A
C602        O605   1.265       .  A
Cd603       O610   2.455       .  S
Cd603       O609   2.434       .  S
Cd603       O608   2.454       .  S
Cd603       O604   2.484       .  S
Cd603       O607   2.490       .  S
Cd603       O605   2.408       .  S
C606        C915   1.475       .  S
C606        O610   1.265       .  A
O611        C614   1.267       .  A
O611       Cd616   2.525       .  S
C612        O621   1.262       .  A
C612        O617   1.265       .  A
C612        C942   1.439       .  S
O613        C619   1.263       .  A
O613       Cd616   2.477       .  S
C614        C900   1.486       .  S
C614        O622   1.264       .  A
C615        C903   1.471       .  S
C615        O620   1.262       .  A
C615        O618   1.268       .  A
Cd616       O623   2.435       .  S
Cd616       O622   2.443       .  S
Cd616       O621   2.466       .  S
Cd616       O617   2.491       .  S
Cd616       O620   2.443       .  S
Cd616       O618   2.470       .  S
C619        C907   1.474       .  S
C619        O623   1.266       .  A
O624        C627   1.272       .  A
O624       Cd629   2.476       .  S
C625        C893   1.472       .  S
C625        O634   1.264       .  A
C625        O630   1.273       .  A
O626        C632   1.275       .  A
O626       Cd629   2.484       .  S
C627        O635   1.265       .  A
C627        C897   1.439       .  S
C628        C923   1.474       .  S
C628        O633   1.273       .  A
C628        O631   1.266       .  A
Cd629       O636   2.385       .  S
Cd629       O635   2.432       .  S
Cd629       O634   2.406       .  S
Cd629       O630   2.498       .  S
Cd629       O633   2.485       .  S
Cd629       O631   2.422       .  S
C632        C908   1.467       .  S
C632        O636   1.264       .  A
O637        C640   1.265       .  A
O637       Cd642   2.476       .  S
C638        C881   1.481       .  S
C638        O647   1.265       .  A
C638        O643   1.266       .  A
O639        C645   1.265       .  A
O639       Cd642   2.481       .  S
C640        O648   1.262       .  A
C640        C962   1.436       .  S
C641        C885   1.476       .  S
C641        O646   1.264       .  A
C641        O644   1.267       .  A
Cd642       O649   2.440       .  S
Cd642       O648   2.462       .  S
Cd642       O647   2.443       .  S
Cd642       O643   2.505       .  S
Cd642       O646   2.464       .  S
Cd642       O644   2.471       .  S
C645        C889   1.474       .  S
C645        O649   1.265       .  A
O650        C653   1.270       .  A
O650       Cd655   2.522       .  S
C651        O660   1.263       .  A
C651        O656   1.269       .  A
C651       C1022   1.442       .  S
O652        C658   1.270       .  A
O652       Cd655   2.481       .  S
C653        C877   1.485       .  S
C653        O661   1.265       .  A
C654        C916   1.476       .  S
C654        O659   1.266       .  A
C654        O657   1.267       .  A
Cd655       O662   2.420       .  S
Cd655       O661   2.419       .  S
Cd655       O660   2.452       .  S
Cd655       O656   2.496       .  S
Cd655       O659   2.470       .  S
Cd655       O657   2.461       .  S
C658        C890   1.469       .  S
C658        O662   1.263       .  A
O663        C666   1.273       .  A
O663       Cd668   2.510       .  S
C664        O673   1.263       .  A
C664        O669   1.271       .  A
C664        C871   1.439       .  S
O665        C671   1.272       .  A
O665       Cd668   2.484       .  S
C666        C868   1.475       .  S
C666        O674   1.264       .  A
C667        C886   1.474       .  S
C667        O672   1.271       .  A
C667        O670   1.266       .  A
Cd668       O675   2.396       .  S
Cd668       O674   2.408       .  S
Cd668       O673   2.432       .  S
Cd668       O669   2.489       .  S
Cd668       O672   2.471       .  S
Cd668       O670   2.436       .  S
C671        C873   1.467       .  S
C671        O675   1.264       .  A
O676        C679   1.269       .  A
O676       Cd681   2.482       .  S
C677        C863   1.471       .  S
C677        O686   1.263       .  A
C677        O682   1.272       .  A
O678        C684   1.269       .  A
O678       Cd681   2.488       .  S
C679        O687   1.263       .  A
C679       C1000   1.437       .  S
C680        C904   1.471       .  S
C680        O685   1.269       .  A
C680        O683   1.265       .  A
Cd681       O688   2.406       .  S
Cd681       O687   2.440       .  S
Cd681       O686   2.400       .  S
Cd681       O682   2.515       .  S
Cd681       O685   2.455       .  S
Cd681       O683   2.439       .  S
C684        C874   1.475       .  S
C684        O688   1.266       .  A
C689        C695   1.543       .  S
C689        C693   1.536       .  S
C689        C852   1.528       .  S
C690        H697   1.085       .  S
C690        C691   1.359       .  D
C691        C861   1.441       .  S
C692        C696   1.538       .  S
C692        C694   1.548       .  S
C692        H698   1.110       .  S
C693        H699   1.085       .  S
C693        C694   1.372       .  D
C694        C932   1.495       .  S
C695        H700   1.085       .  S
C695        C696   1.358       .  D
C696        C898   1.446       .  S
C701        C702   1.544       .  S
C701        C705   1.539       .  S
C701        C855   1.529       .  S
C702        H709   1.084       .  S
C702        C703   1.357       .  D
C703        C704   1.538       .  S
C703        C872   1.445       .  S
C704        C706   1.548       .  S
C704        H710   1.110       .  S
C705        H711   1.086       .  S
C705        C706   1.373       .  D
C706        C991   1.495       .  S
C707        H712   1.086       .  S
C707        C708   1.361       .  D
C708        C849   1.445       .  S
O713        C716   1.271       .  A
O713       Cd718   2.469       .  S
C714        C920   1.472       .  S
C714        O723   1.263       .  A
C714        O719   1.273       .  A
O715        C721   1.272       .  A
O715       Cd718   2.488       .  S
C716        O724   1.264       .  A
C716        C986   1.432       .  S
C717        C841   1.473       .  S
C717        O722   1.271       .  A
C717        O720   1.266       .  A
Cd718       O725   2.392       .  S
Cd718       O724   2.418       .  S
Cd718       O723   2.392       .  S
Cd718       O719   2.511       .  S
Cd718       O722   2.455       .  S
Cd718       O720   2.437       .  S
C721        C845   1.466       .  S
C721        O725   1.264       .  A
O726        C729   1.271       .  A
O726       Cd731   2.525       .  S
C727        O736   1.262       .  A
C727        O732   1.269       .  A
C727        C956   1.437       .  S
O728        C734   1.268       .  A
O728       Cd731   2.491       .  S
C729        C912   1.476       .  S
C729        O737   1.263       .  A
C730        C837   1.469       .  S
C730        O735   1.268       .  A
C730        O733   1.264       .  A
Cd731       O738   2.403       .  S
Cd731       O737   2.421       .  S
Cd731       O736   2.439       .  S
Cd731       O732   2.488       .  S
Cd731       O735   2.460       .  S
Cd731       O733   2.440       .  S
C734        C846   1.475       .  S
C734        O738   1.266       .  A
O739        C742   1.271       .  A
O739       Cd744   2.494       .  S
C740        C899   1.477       .  S
C740        O749   1.263       .  A
C740        O745   1.273       .  A
O741        C747   1.271       .  A
O741       Cd744   2.474       .  S
C742        O750   1.264       .  A
C742        C943   1.443       .  S
C743        C829   1.480       .  S
C743        O748   1.268       .  A
C743        O746   1.268       .  A
Cd744       O751   2.409       .  S
Cd744       O750   2.450       .  S
Cd744       O749   2.405       .  S
Cd744       O745   2.533       .  S
Cd744       O748   2.484       .  S
Cd744       O746   2.449       .  S
C747        C833   1.467       .  S
C747        O751   1.264       .  A
O752        C755   1.265       .  A
O752       Cd757   2.479       .  S
C753        C894   1.480       .  S
C753        O762   1.265       .  A
C753        O758   1.266       .  A
O754        C760   1.263       .  A
O754       Cd757   2.454       .  S
C755        O763   1.262       .  A
C755        C862   1.434       .  S
C756        C834   1.472       .  S
C756        O761   1.264       .  A
C756        O759   1.265       .  A
Cd757       O764   2.471       .  S
Cd757       O763   2.453       .  S
Cd757       O762   2.436       .  S
Cd757       O758   2.503       .  S
Cd757       O761   2.473       .  S
Cd757       O759   2.435       .  S
C760        C842   1.473       .  S
C760        O764   1.267       .  A
O765        C768   1.274       .  A
O765       Cd770   2.504       .  S
C766        O775   1.264       .  A
C766        O771   1.272       .  A
C766        C959   1.436       .  S
O767        C773   1.273       .  A
O767       Cd770   2.480       .  S
C768        C882   1.474       .  S
C768        O776   1.264       .  A
C769        C821   1.471       .  S
C769        O774   1.272       .  A
C769        O772   1.266       .  A
Cd770       O777   2.386       .  S
Cd770       O776   2.405       .  S
Cd770       O775   2.421       .  S
Cd770       O771   2.479       .  S
Cd770       O774   2.460       .  S
Cd770       O772   2.427       .  S
C773        C825   1.465       .  S
C773        O777   1.264       .  A
O778        C781   1.267       .  A
O778       Cd783   2.490       .  S
C779        C878   1.476       .  S
C779        O788   1.262       .  A
C779        O784   1.269       .  A
O780        C786   1.265       .  A
O780       Cd783   2.481       .  S
C781        O789   1.262       .  A
C781       C1023   1.439       .  S
C782        C838   1.471       .  S
C782        O787   1.264       .  A
C782        O785   1.267       .  A
Cd783       O790   2.415       .  S
Cd783       O789   2.457       .  S
Cd783       O788   2.422       .  S
Cd783       O784   2.532       .  S
Cd783       O787   2.459       .  S
Cd783       O785   2.444       .  S
C786        C826   1.473       .  S
C786        O790   1.266       .  A
O791        C794   1.265       .  A
O791       Cd796   2.493       .  S
C792        C867   1.482       .  S
C792        O801   1.265       .  A
C792        O797   1.266       .  A
O793        C799   1.264       .  A
O793       Cd796   2.478       .  S
C794        O802   1.261       .  A
C794        C850   1.439       .  S
C795        C822   1.472       .  S
C795        O800   1.262       .  A
C795        O798   1.266       .  A
Cd796       O803   2.430       .  S
Cd796       O802   2.466       .  S
Cd796       O801   2.445       .  S
Cd796       O797   2.508       .  S
Cd796       O800   2.459       .  S
Cd796       O798   2.466       .  S
C799        C817   1.473       .  S
C799        O803   1.266       .  A
O804        C807   1.269       .  A
O804       Cd809   2.501       .  S
C805        O814   1.263       .  A
C805        O810   1.268       .  A
C805        C998   1.432       .  S
O806        C812   1.271       .  A
O806       Cd809   2.486       .  S
C807        C864   1.481       .  S
C807        O815   1.267       .  A
C808        C830   1.476       .  S
C808        O813   1.270       .  A
C808        O811   1.265       .  A
Cd809       O816   2.404       .  S
Cd809       O815   2.413       .  S
Cd809       O814   2.438       .  S
Cd809       O810   2.465       .  S
Cd809       O813   2.492       .  S
Cd809       O811   2.439       .  S
C812        C818   1.466       .  S
C812        O816   1.262       .  A
C817        H819   1.086       .  S
C817        C818   1.339       .  D
C818        H820   1.087       .  S
C821        H823   1.087       .  S
C821        C822   1.340       .  D
C822        H824   1.087       .  S
C825        H827   1.087       .  S
C825        C826   1.339       .  D
C826        H828   1.086       .  S
C829        H831   1.086       .  S
C829        C830   1.344       .  D
C830        H832   1.087       .  S
C833        H835   1.087       .  S
C833        C834   1.340       .  D
C834        H836   1.086       .  S
C837        H839   1.087       .  S
C837        C838   1.341       .  D
C838        H840   1.087       .  S
C841        H843   1.087       .  S
C841        C842   1.341       .  D
C842        H844   1.087       .  S
C845        H847   1.087       .  S
C845        C846   1.341       .  D
C846        H848   1.086       .  S
C849        C850   1.208       .  T
C851        C852   1.407       .  A
C851        C856   1.396   1_655  A
C851        H857   1.081       .  S
C853        C854   1.398   1_655  A
C853        H858   1.082       .  S
C854        H859   1.082       .  S
C855        C856   1.408       .  A
C856        H860   1.080       .  S
C861        C862   1.205       .  T
C863        H865   1.087       .  S
C863        C864   1.343       .  D
C864        H866   1.086       .  S
C867        H869   1.086       .  S
C867        C868   1.344       .  D
C868        H870   1.087       .  S
C871        C872   1.208       .  T
C873        H875   1.087       .  S
C873        C874   1.342       .  D
C874        H876   1.086       .  S
C877        H879   1.086       .  S
C877        C878   1.347       .  D
C878        H880   1.087       .  S
C881        H883   1.086       .  S
C881        C882   1.343       .  D
C882        H884   1.087       .  S
C885        H887   1.087       .  S
C885        C886   1.342       .  D
C886        H888   1.087       .  S
C889        H891   1.086       .  S
C889        C890   1.341       .  D
C890        H892   1.087       .  S
C893        H895   1.087       .  S
C893        C894   1.343       .  D
C894        H896   1.086       .  S
C897        C898   1.208       .  T
C899        H901   1.087       .  S
C899        C900   1.345       .  D
C900        H902   1.086       .  S
C903        H905   1.087       .  S
C903        C904   1.340       .  D
C904        H906   1.087       .  S
C907        H909   1.086       .  S
C907        C908   1.339       .  D
C908        H910   1.087       .  S
C911        H913   1.086       .  S
C911        C912   1.346       .  D
C912        H914   1.087       .  S
C915        H917   1.087       .  S
C915        C916   1.344       .  D
C916        H918   1.087       .  S
C919        H921   1.086       .  S
C919        C920   1.343       .  D
C920        H922   1.087       .  S
C923        H925   1.087       .  S
C923        C924   1.342       .  D
C924        H926   1.087       .  S
C927        H929   1.087       .  S
C927        C928   1.342       .  D
C928        H930   1.086       .  S
C931        C932   1.405   1_554  A
C931        C936   1.401       .  A
C931        H937   1.082       .  S
C932        C933   1.408       .  A
C933        C934   1.401       .  A
C933        H938   1.082       .  S
C934        C935   1.407   1_556  A
C934        H939   1.082       .  S
C935        C936   1.407       .  A
C936        H940   1.082       .  S
C941        C942   1.208       .  T
C943        C944   1.210       .  T
C945        C946   1.405       .  A
C945        C950   1.389   1_565  A
C945        H951   1.084       .  S
C947        C948   1.403   1_565  A
C947        H952   1.078       .  S
C948        H953   1.077       .  S
C949        C950   1.405       .  A
C950        H954   1.084       .  S
C955        C956   1.207       .  T
C957        C958   1.208       .  T
C959        C960   1.207       .  T
C961        C962   1.206       .  T
C963        C964   1.409       .  A
C963        C968   1.404       .  A
C963        H969   1.082       .  S
C964        C965   1.403       .  A
C965        H970   1.082       .  S
C966        C967   1.405       .  A
C966        H971   1.082       .  S
C968        H972   1.083       .  S
C973        C974   1.406       .  A
C973        C978   1.382   1_655  A
C973        H979   1.084       .  S
C975        C976   1.408   1_655  A
C975        H980   1.079       .  S
C976        H981   1.079       .  S
C977        C978   1.402       .  A
C978        H982   1.084       .  S
C983        C984   1.207       .  T
C985        C986   1.204       .  T
C987        C988   1.407   1_556  A
C987        C992   1.400       .  A
C987        H993   1.082       .  S
C988        C989   1.408       .  A
C989        C990   1.404       .  A
C989        H994   1.082       .  S
C990        C991   1.408   1_554  A
C990        H995   1.083       .  S
C991        C992   1.404       .  A
C992        H996   1.082       .  S
C997        C998   1.204       .  T
C999       C1000   1.207       .  T
C1001      C1006   1.397       .  A
C1001      H1007   1.083       .  S
C1002      C1003   1.406   1_554  A
C1003      C1004   1.403       .  A
C1003      H1008   1.083       .  S
C1004      H1009   1.082       .  S
C1005      C1006   1.405       .  A
C1006      H1010   1.082       .  S
C1011      C1016   1.385   1_565  A
C1011      H1017   1.084       .  S
C1012      C1013   1.412       .  A
C1013      C1014   1.407   1_565  A
C1013      H1018   1.078       .  S
C1014      C1015   1.409       .  A
C1014      H1019   1.079       .  S
C1016      H1020   1.084       .  S
C1021      C1022   1.210       .  T
C1023      C1024   1.208       .  T
