geometry optimzed in LAMMPS
_audit_creation_date              2020-11-30 
_audit_creation_method            'lammps2cif' 
_symmetry_space_group_name_H-M    'P1' 
_symmetry_Int_Tables_number       1 
_symmetry_cell_setting            triclinic 
loop_ 
_symmetry_equiv_pos_as_xyz 
  x,y,z 
_cell_length_a                    38.68894386 
_cell_length_b                    38.85259039515917 
_cell_length_c                    38.89856123415436 
_cell_angle_alpha                 89.75094649639065 
_cell_angle_beta                  89.50138770093119 
_cell_angle_gamma                 89.97290242109963 
loop_ 
_atom_site_label 
_atom_site_type_symbol 
_atom_site_fract_x 
_atom_site_fract_y 
_atom_site_fract_z 
_atom_site_charge 
C1          C  0.59136102  0.95584054  0.00596614     0.85800
C2          C  0.60738326  0.93865875  0.03725049    -0.54500
C3          C  0.60640282  0.90349743  0.03661692     0.08700
C4          C  0.58889381  0.88855705  0.50412318     0.19600
C5          C  0.61043624  0.94035256  0.47520527    -0.55200
C6          C  0.60942164  0.90517920  0.47392361     0.08800
C7          C  0.55487150  0.94164012  0.00425383    -0.54700
C8          C  0.55308752  0.90660442  0.00316113     0.09400
H9          H  0.62021674  0.95303417  0.05740724     0.13900
H10         H  0.58805086  0.86000431  0.50338941    -0.00400
H11         H  0.62444599  0.95588485  0.45639975     0.14200
H12         H  0.53230683  0.95815042  0.00383874     0.14000
C13         C  0.41526844  0.95582105  0.99786431     0.85800
C14         C  0.39744927  0.93924999  0.46729401    -0.54500
C15         C  0.39904455  0.90409272  0.46705357     0.08700
C16         C  0.41869027  0.88847648  0.99802709     0.19600
C17         C  0.39841258  0.93911422  0.02944972    -0.55200
C18         C  0.40001473  0.90391153  0.02979510     0.08800
C19         C  0.45202738  0.94192007  0.99699238    -0.54700
C20         C  0.45425726  0.90684472  0.99729305     0.09400
H21         H  0.38353756  0.95401336  0.44802178     0.13900
H22         H  0.41991397  0.85992098  0.99811835    -0.00400
H23         H  0.38498528  0.95378578  0.04921493     0.14200
H24         H  0.47442229  0.95864725  0.99665613     0.14000
C25         C  0.41598789  0.06304656  0.49665754     0.85800
C26         C  0.39867946  0.07993271  0.02765420    -0.54500
C27         C  0.40025681  0.11509910  0.02751641     0.08700
C28         C  0.41937656  0.13041474  0.49580265     0.19600
C29         C  0.39863879  0.07940307  0.46559018    -0.55200
C30         C  0.40017392  0.11458051  0.46480614     0.08800
C31         C  0.45275436  0.07695244  0.49612011    -0.54700
C32         C  0.45495075  0.11206471  0.49581664     0.09400
H33         H  0.38502042  0.06536700  0.04746698     0.13900
H34         H  0.42052542  0.15897295  0.49549734    -0.00400
H35         H  0.38490664  0.06448099  0.44644941     0.14200
H36         H  0.47509927  0.06020113  0.99633809     0.14000
C37         C  0.59135370  0.06262584  0.50552263     0.85800
C38         C  0.61082895  0.07787053  0.47484522    -0.54500
C39         C  0.61005656  0.11300766  0.47318074     0.08700
C40         C  0.58955469  0.12994120  0.50312224     0.19600
C41         C  0.60719841  0.07961977  0.03680633    -0.55200
C42         C  0.60673837  0.11479836  0.03592069     0.08800
C43         C  0.55503451  0.07719582  0.50327936    -0.54700
C44         C  0.55357421  0.11226389  0.50193932     0.09400
H45         H  0.62464730  0.06217071  0.45615921     0.13900
H46         H  0.58900322  0.15850044  0.50207670    -0.00400
H47         H  0.61973682  0.06503007  0.05712911     0.14200
H48         H  0.53239704  0.06088800  0.50264546     0.14000
C49         C  0.95032067  0.42028252  0.49731193     0.85800
C50         C  0.93434693  0.40269568  0.02876604    -0.54500
C51         C  0.89904923  0.40423967  0.03017130     0.08700
C52         C  0.88276338  0.42364304  0.49935181     0.19600
C53         C  0.93305593  0.40327355  0.46666385    -0.55200
C54         C  0.89772134  0.40474129  0.46742542     0.08800
C55         C  0.93646026  0.45683420  0.49786892    -0.54700
C56         C  0.90130378  0.45908665  0.49893777     0.09400
H57         H  0.94959170  0.38892038  0.04773663     0.13900
H58         H  0.85409432  0.42486180  0.50022453    -0.00400
H59         H  0.94747924  0.38968094  0.44679465     0.14200
H60         H  0.95326958  0.47913976  0.99743540     0.14000
C61         C  0.95120675  0.59686879  0.00193680     0.85800
C62         C  0.93527378  0.61471649  0.47084530    -0.54500
C63         C  0.89996125  0.61306824  0.46986597     0.08700
C64         C  0.88362298  0.59324977  0.00060181     0.19600
C65         C  0.93360444  0.61349807  0.03292672    -0.55200
C66         C  0.89827774  0.61183301  0.03248324     0.08800
C67         C  0.93742766  0.56019690  0.00118725    -0.54700
C68         C  0.90221853  0.55790033  0.00051626     0.09400
H69         H  0.95055961  0.62861862  0.45174208     0.13900
H70         H  0.85496117  0.59195568  0.00006972    -0.00400
H71         H  0.94778537  0.62685881  0.05286517     0.14200
H72         H  0.95428202  0.53791611  0.00134287     0.14000
C73         C  0.05876617  0.59698758  0.00171124     0.85800
C74         C  0.07574138  0.61441798  0.03221234    -0.54500
C75         C  0.11107129  0.61286448  0.03187807     0.08700
C76         C  0.12641150  0.59352093  0.00045939     0.19600
C77         C  0.07514791  0.61408012  0.47018989    -0.55200
C78         C  0.11047968  0.61255365  0.46931370     0.08800
C79         C  0.07268255  0.56038762  0.00183628    -0.54700
C80         C  0.10789154  0.55812638  0.50099168     0.09400
H81         H  0.06109646  0.62804418  0.05190173     0.13900
H82         H  0.15508635  0.59231907  0.49989039    -0.00400
H83         H  0.06016474  0.62761788  0.45084766     0.14200
H84         H  0.05585990  0.53811621  0.00218142     0.14000
C85         C  0.05760560  0.42135320  0.49633710     0.85800
C86         C  0.07426085  0.40386417  0.46547115    -0.54500
C87         C  0.10955280  0.40493200  0.46507272     0.08700
C88         C  0.12522393  0.42398818  0.49632963     0.19600
C89         C  0.07380878  0.40403797  0.02753071    -0.55200
C90         C  0.10913497  0.40517288  0.02785929     0.08800
C91         C  0.07185194  0.45781916  0.49604627    -0.54700
C92         C  0.10711269  0.45964443  0.49622142     0.09400
H93         H  0.05939401  0.39031405  0.44615696     0.13900
H94         H  0.15391209  0.42482501  0.49634157    -0.00400
H95         H  0.05866481  0.39059540  0.04707363     0.14200
H96         H  0.05525069  0.48027240  0.49606871     0.14000
In97       In  0.33838268  0.87069418  0.38847621     1.36900
C98         C  0.32819967  0.93689261  0.37549822     0.76900
O99         O  0.34579459  0.88750469  0.44244800    -0.61600
O100        O  0.39070014  0.87146161  0.41488890    -0.52500
C101        C  0.29586187  0.82113789  0.40920915     0.69500
O102        O  0.28668025  0.85222956  0.40643588    -0.47400
C103        C  0.34523535  0.85162556  0.32292947     0.74200
O104        O  0.30479674  0.91813772  0.38859613    -0.59200
O105        O  0.37017094  0.84897382  0.34375996    -0.49300
O106        O  0.35589679  0.92134304  0.36818925    -0.55600
C107        C  0.37824553  0.88533767  0.44168073     0.84400
O108        O  0.32753296  0.81565591  0.40295475    -0.57500
O109        O  0.31764481  0.86297082  0.33616373    -0.60800
In110      In  0.14538630  0.67146856  0.38920103     1.36900
C111        C  0.12915065  0.63331543  0.44343421     0.76900
O112        O  0.19969977  0.68350926  0.40570146    -0.61600
O113        O  0.16218407  0.72361228  0.40563545    -0.52500
C114        C  0.16590151  0.66332677  0.32427350     0.69500
O115        O  0.16643555  0.63843064  0.34546220    -0.47400
C116        C  0.07913612  0.67959417  0.37483198     0.74200
O117        O  0.14711683  0.62090310  0.41905088    -0.59200
O118        O  0.09736447  0.70399514  0.38619038    -0.49300
O119        O  0.12363935  0.66518228  0.44149521    -0.55600
C120        C  0.19332699  0.71514347  0.41019524     0.84400
O121        O  0.15636802  0.69160867  0.33699094    -0.57500
O122        O  0.09538912  0.65198009  0.36939645    -0.60800
In123      In  0.33951243  0.86981103  0.10961082     1.36900
C124        C  0.37953905  0.88480213  0.05573337     0.76900
O125        O  0.32849325  0.81483524  0.09580060    -0.61600
O126        O  0.28738175  0.85134196  0.09467428    -0.52500
C127        C  0.34592715  0.85101791  0.17531030     0.69500
O128        O  0.37130700  0.84917631  0.15447834    -0.47400
C129        C  0.32912523  0.93599631  0.12133549     0.74200
O130        O  0.39209969  0.87151958  0.08268834    -0.59200
O131        O  0.30674869  0.91769401  0.10655164    -0.49300
O132        O  0.34706000  0.88585983  0.05510856    -0.55600
C133        C  0.29653682  0.82028690  0.09157315     0.84400
O134        O  0.31817087  0.86134268  0.16196209    -0.57500
O135        O  0.35550901  0.91987427  0.13126610    -0.60800
In136      In  0.14480251  0.67013153  0.11238088     1.36900
C137        C  0.07826137  0.67825309  0.12643478     0.76900
O138        O  0.12354600  0.66496583  0.06022782    -0.61600
O139        O  0.14847288  0.62069731  0.08102165    -0.52500
C140        C  0.19344659  0.71423780  0.09318618     0.69500
O141        O  0.16198285  0.72239245  0.09632640    -0.47400
C142        C  0.16400984  0.66187832  0.17732437     0.74200
O143        O  0.09676913  0.70262096  0.11494019    -0.59200
O144        O  0.16378084  0.63661364  0.15674023    -0.49300
O145        O  0.09441336  0.65066212  0.13239798    -0.55600
C146        C  0.12996468  0.63335403  0.05736168     0.84400
O147        O  0.19986093  0.68263480  0.09799982    -0.57500
O148        O  0.15523374  0.69020880  0.16411658    -0.60800
In149      In  0.14324285  0.34374257  0.38623029     1.36900
C150        C  0.07711730  0.33235086  0.37326530     0.76900
O151        O  0.12116536  0.35175351  0.43813843    -0.61600
O152        O  0.14618982  0.39491327  0.41501463    -0.52500
C153        C  0.19287409  0.30218006  0.40774804     0.69500
O154        O  0.16183629  0.29282196  0.40450109    -0.47400
C155        C  0.16159497  0.34980297  0.32012484     0.74200
O156        O  0.09613272  0.30964931  0.38685148    -0.59200
O157        O  0.16104851  0.37568840  0.33991956    -0.49300
O158        O  0.09245735  0.35996405  0.36534040    -0.55600
C159        C  0.12786148  0.38338137  0.43966919     0.84400
O160        O  0.19835999  0.33371551  0.40153889    -0.57500
O161        O  0.15425242  0.32169516  0.33477970    -0.60800
In162      In  0.33988805  0.14972343  0.38613693     1.36900
C163        C  0.37903149  0.13307283  0.43933902     0.76900
O164        O  0.32944274  0.20427020  0.40266133    -0.61600
O165        O  0.28821616  0.16796461  0.40330200    -0.52500
C166        C  0.34678486  0.16812008  0.32042757     0.69500
O167        O  0.37260079  0.16714624  0.34032023    -0.47400
C168        C  0.32860047  0.08416080  0.37268216     0.74200
O169        O  0.39102262  0.15172464  0.41519486    -0.59200
O170        O  0.30595151  0.10294976  0.38686152    -0.49300
O171        O  0.34721293  0.12683203  0.43757714    -0.55600
C172        C  0.29755186  0.19874851  0.40770314     0.84400
O173        O  0.31825154  0.16140724  0.33483839    -0.57500
O174        O  0.35604632  0.09954919  0.36398203    -0.60800
In175      In  0.14458834  0.34428375  0.10635924     1.36900
C176        C  0.12746360  0.38387203  0.05334699     0.76900
O177        O  0.19957133  0.33435074  0.08911335    -0.61600
O178        O  0.16310616  0.29338943  0.08790977    -0.52500
C179        C  0.16379785  0.35040433  0.17181257     0.69500
O180        O  0.16171367  0.37653429  0.15222376    -0.47400
C181        C  0.07875063  0.33236558  0.12188115     0.74200
O182        O  0.14667370  0.39545664  0.07689503    -0.59200
O183        O  0.09744766  0.31008122  0.10709048    -0.49300
O184        O  0.12069316  0.35230546  0.05565671    -0.55600
C185        C  0.19409938  0.30273303  0.08360074     0.84400
O186        O  0.15805718  0.32215925  0.15707932    -0.57500
O187        O  0.09437437  0.35960256  0.13000427    -0.60800
In188      In  0.34028753  0.14950307  0.10701141     1.36900
C189        C  0.32999087  0.08348317  0.12047411     0.76900
O190        O  0.34723975  0.12996766  0.05412749    -0.61600
O191        O  0.39198032  0.15026004  0.07831970    -0.52500
C192        C  0.29831339  0.19875389  0.08547852     0.69500
O193        O  0.28888727  0.16791029  0.08991283    -0.47400
C194        C  0.34679492  0.16785232  0.17254907     0.74200
O195        O  0.30670341  0.10221490  0.10752679    -0.59200
O196        O  0.37266121  0.16699045  0.15229318    -0.49300
O197        O  0.35750708  0.09908216  0.12778422    -0.55600
C198        C  0.37948003  0.13403829  0.05308622     0.84400
O199        O  0.33007873  0.20428457  0.09080912    -0.57500
O200        O  0.31831750  0.16108290  0.15857859    -0.60800
In201      In  0.86472082  0.67124642  0.38933643     1.36900
C202        C  0.93095148  0.67911863  0.37444304     0.76900
O203        O  0.88789024  0.66532065  0.44078426    -0.61600
O204        O  0.86245155  0.62128652  0.42059929    -0.52500
C205        C  0.81650038  0.71585180  0.40926655     0.69500
O206        O  0.84770489  0.72401105  0.40412380    -0.47400
C207        C  0.84545644  0.66361162  0.32434087     0.74200
O208        O  0.91266970  0.70334846  0.38642487    -0.59200
O209        O  0.84339815  0.63874649  0.34554742    -0.49300
O210        O  0.91472169  0.65160994  0.36850312    -0.55600
C211        C  0.88151140  0.63369185  0.44385652     0.84400
O212        O  0.81020750  0.68404697  0.40617085    -0.57500
O213        O  0.85621591  0.69136525  0.33700448    -0.60800
In214      In  0.66843214  0.87011503  0.39288321     1.36900
C215        C  0.63052525  0.88724697  0.44763026     0.76900
O216        O  0.68019969  0.81532390  0.40831392    -0.61600
O217        O  0.72058163  0.85251801  0.40920943    -0.52500
C218        C  0.66082576  0.85119443  0.32774596     0.69500
O219        O  0.63502883  0.85310165  0.34806101    -0.47400
C220        C  0.67748966  0.93520780  0.37501522     0.74200
O221        O  0.61870376  0.86682397  0.42523522    -0.59200
O222        O  0.70162770  0.91745342  0.38790912    -0.49300
O223        O  0.66184227  0.89516268  0.44352400    -0.55600
C224        C  0.71206471  0.82127071  0.41254338     0.84400
O225        O  0.68955651  0.85697160  0.34159348    -0.57500
O226        O  0.64964512  0.91907591  0.37033951    -0.60800
In227      In  0.86321323  0.67073926  0.11172088     1.36900
C228        C  0.87856853  0.63218430  0.05778839     0.76900
O229        O  0.80791928  0.68284353  0.09850752    -0.61600
O230        O  0.84526214  0.72302248  0.09609159    -0.52500
C231        C  0.84468370  0.66358610  0.17719578     0.69500
O232        O  0.84104151  0.63902169  0.15611364    -0.47400
C233        C  0.92986085  0.67840508  0.12448729     0.74200
O234        O  0.86333276  0.61936977  0.08382255    -0.59200
O235        O  0.91190651  0.70241339  0.11166948    -0.49300
O236        O  0.88121019  0.66447297  0.05788214    -0.55600
C237        C  0.81386747  0.71453274  0.09360309     0.84400
O238        O  0.85668872  0.69092005  0.16421192    -0.57500
O239        O  0.91321715  0.65141924  0.13183625    -0.60800
In240      In  0.66813146  0.87024091  0.11451986     1.36900
C241        C  0.67983845  0.93618336  0.12782319     0.76900
O242        O  0.66002338  0.88766485  0.06080770    -0.61600
O243        O  0.61563350  0.87015363  0.08841281    -0.52500
C244        C  0.71015737  0.82016192  0.09480889     0.69500
O245        O  0.71964454  0.85111722  0.09767672    -0.47400
C246        C  0.66113674  0.85160901  0.18001120     0.74200
O247        O  0.70191590  0.91764442  0.11248955    -0.59200
O248        O  0.63542661  0.85228432  0.15999562    -0.49300
O249        O  0.65279924  0.92052232  0.13709602    -0.55600
C250        C  0.62765107  0.88466284  0.06166130     0.84400
O251        O  0.67825002  0.81502540  0.10021465    -0.57500
O252        O  0.68968473  0.85876319  0.16582621    -0.60800
In253      In  0.86313511  0.34295866  0.39015772     1.36900
C254        C  0.87847402  0.38347815  0.44276480     0.76900
O255        O  0.80780440  0.33182360  0.40465280    -0.61600
O256        O  0.84519348  0.29177203  0.40856330    -0.52500
C257        C  0.84496414  0.34895950  0.32451171     0.69500
O258        O  0.84331882  0.37441943  0.34480549    -0.47400
C259        C  0.92924106  0.33185965  0.37579467     0.74200
O260        O  0.86309361  0.39532696  0.41663329    -0.59200
O261        O  0.91062239  0.30928672  0.39037245    -0.49300
O262        O  0.88170041  0.35126351  0.44332285    -0.55600
C263        C  0.81381929  0.30040539  0.41100612     0.84400
O264        O  0.85406489  0.32110305  0.33851115    -0.57500
O265        O  0.91356668  0.35917721  0.36785811    -0.60800
In266      In  0.66751381  0.14714453  0.39059712     1.36900
C267        C  0.67706038  0.08215503  0.37280680     0.76900
O268        O  0.66180121  0.12231588  0.44155565    -0.61600
O269        O  0.61829208  0.15045341  0.42346523    -0.52500
C270        C  0.71042140  0.19535194  0.41160688     0.69500
O271        O  0.71976556  0.16459057  0.40655935    -0.47400
C272        C  0.65892071  0.16891041  0.32626265     0.74200
O273        O  0.70116150  0.10019145  0.38512774    -0.59200
O274        O  0.63332370  0.16544238  0.34662289    -0.49300
O275        O  0.64900479  0.09804426  0.36825962    -0.55600
C276        C  0.63061519  0.13045762  0.44613134     0.84400
O277        O  0.67843392  0.20090900  0.40791921    -0.57500
O278        O  0.68786698  0.16316420  0.33973287    -0.60800
In279      In  0.86475388  0.34394527  0.11015276     1.36900
C280        C  0.93078813  0.33279145  0.12322640     0.76900
O281        O  0.88574260  0.35131411  0.05753846    -0.61600
O282        O  0.86378253  0.39547158  0.08151152    -0.52500
C283        C  0.81487605  0.30268238  0.08871207     0.69500
O284        O  0.84604408  0.29347497  0.09128945    -0.47400
C285        C  0.84713204  0.34962022  0.17637502     0.74200
O286        O  0.91163237  0.30962391  0.11085715    -0.59200
O287        O  0.84629220  0.37538263  0.15620790    -0.49300
O288        O  0.91563627  0.36078320  0.12984024    -0.55600
C289        C  0.88076088  0.38329023  0.05630656     0.84400
O290        O  0.80925850  0.33400276  0.09569836    -0.57500
O291        O  0.85540428  0.32170530  0.16206353    -0.60800
In292      In  0.66905798  0.14923468  0.11335701     1.36900
C293        C  0.62874222  0.13309321  0.06070404     0.76900
O294        O  0.67931564  0.20360990  0.09551035    -0.61600
O295        O  0.72088415  0.16778347  0.09585818    -0.52500
C296        C  0.66064462  0.16843377  0.17876398     0.69500
O297        O  0.63534380  0.16678336  0.15833554    -0.47400
C298        C  0.68067644  0.08355229  0.12814430     0.74200
O299        O  0.61758197  0.15215390  0.08471977    -0.59200
O300        O  0.70312691  0.10204076  0.11311104    -0.49300
O301        O  0.66037840  0.12587945  0.06237203    -0.55600
C302        C  0.71123308  0.19838440  0.09052880     0.84400
O303        O  0.68956744  0.16189172  0.16507367    -0.62300
O304        O  0.65343095  0.09926317  0.13673268    -0.60800
C305        C  0.79603690  0.24328426  0.07416530    -0.14100
C306        C  0.78723690  0.27772614  0.08079034     0.08100
C307        C  0.75218653  0.28656506  0.08448241    -0.14100
C308        C  0.72671808  0.26088470  0.08488982    -0.14100
C309        C  0.73607773  0.22604788  0.08173648     0.08100
C310        C  0.77071402  0.21772130  0.07472532    -0.14100
H311        H  0.82273784  0.23576092  0.07076098     0.12100
H312        H  0.74465315  0.31302171  0.08935220     0.12100
H313        H  0.70020054  0.26801830  0.09003967     0.12100
H314        H  0.77863102  0.19106436  0.07170591     0.12100
C315        C  0.68677756  0.18424147  0.27050116    -0.14100
C316        C  0.65638442  0.17641038  0.28893958     0.08100
C317        C  0.62576464  0.17067785  0.27058123    -0.14100
C318        C  0.62631611  0.17025128  0.23436597    -0.14100
C319        C  0.65749580  0.17549111  0.21615219     0.08100
C320        C  0.68736380  0.18363034  0.23465582    -0.14100
H321        H  0.71076040  0.18899829  0.28385154     0.12100
H322        H  0.60202772  0.16436994  0.28412116     0.12100
H323        H  0.60294146  0.16376199  0.22075421     0.12100
H324        H  0.71172883  0.18802574  0.22140968     0.12100
C325        C  0.83568972  0.32013593  0.26838140    -0.14100
C326        C  0.83905358  0.35088061  0.28690363     0.08100
C327        C  0.84118717  0.38214217  0.26860800    -0.14100
C328        C  0.84202404  0.38228132  0.23239018    -0.14100
C329        C  0.84067627  0.35116448  0.21405219     0.08100
C330        C  0.83654207  0.32026888  0.23252119    -0.14100
H331        H  0.83384291  0.29563432  0.28167708     0.12100
H332        H  0.84409083  0.40619699  0.28223256     0.12100
H333        H  0.84544186  0.40645681  0.21883588     0.12100
H334        H  0.83523727  0.29586823  0.21922204     0.12100
C335        C  0.75143011  0.28342019  0.41380801    -0.14100
C336        C  0.78638792  0.27488940  0.41816691     0.08100
C337        C  0.79535465  0.24051224  0.42510482    -0.14100
C338        C  0.77015658  0.21480909  0.42517955    -0.14100
C339        C  0.73552518  0.22299159  0.41852063     0.08100
C340        C  0.72614667  0.25766444  0.41404996    -0.14100
H341        H  0.74383352  0.30973920  0.40828112     0.12100
H342        H  0.82204924  0.23322576  0.42869113     0.12100
H343        H  0.77808018  0.18822870  0.42882588     0.12100
H344        H  0.69968359  0.26462047  0.40869973     0.12100
C345        C  0.65755977  0.99194639  0.14991379    -0.14100
C346        C  0.68387854  0.97357143  0.13300356     0.08100
C347        C  0.71178085  0.99171464  0.11834825    -0.14100
C348        C  0.71205712  0.02779359  0.11853151    -0.14100
C349        C  0.68440479  0.04608948  0.13338215     0.08100
C350        C  0.65783226  0.02780249  0.15009332    -0.14100
H351        H  0.63587011  0.97866956  0.16164203     0.12100
H352        H  0.73249410  0.97809189  0.10526857     0.12100
H353        H  0.73288979  0.04130411  0.10556703     0.12100
H354        H  0.63626844  0.04122100  0.16194731     0.12100
C355        C  0.75130855  0.73175815  0.09259234    -0.14100
C356        C  0.78631461  0.74027563  0.08765784     0.08100
C357        C  0.79519355  0.77468271  0.08073903    -0.14100
C358        C  0.76990800  0.80033362  0.08092637    -0.14100
C359        C  0.73522840  0.79220853  0.08808477     0.08100
C360        C  0.72592077  0.75752877  0.09281680    -0.14100
H361        H  0.74374062  0.70539733  0.09806651     0.12100
H362        H  0.82186836  0.78199578  0.07668497     0.12100
H363        H  0.77783644  0.82688525  0.07701234     0.12100
H364        H  0.69943480  0.75057282  0.09847309     0.12100
C365        C  0.65110015  0.99050403  0.35658112    -0.14100
C366        C  0.68028523  0.97241913  0.36799161     0.08100
C367        C  0.71035241  0.99077651  0.37615785    -0.14100
C368        C  0.71027993  0.02681728  0.37547307    -0.14100
C369        C  0.68012561  0.04485018  0.36663787     0.08100
C370        C  0.65102471  0.02635478  0.35590543    -0.14100
H371        H  0.62762043  0.97702544  0.34993194     0.12100
H372        H  0.73327393  0.97737093  0.38481198     0.12100
H373        H  0.73312250  0.04052189  0.38366793     0.12100
H374        H  0.62747279  0.03956458  0.34880214     0.12100
C375        C  0.62758941  0.84925098  0.27214690    -0.14100
C376        C  0.65862568  0.84496258  0.29024551     0.08100
C377        C  0.68925241  0.83881186  0.27159669    -0.14100
C378        C  0.68935499  0.83890680  0.23576542    -0.14100
C379        C  0.65883245  0.84513350  0.21751261     0.08100
C380        C  0.62768356  0.84929373  0.23596117    -0.14100
H381        H  0.60367298  0.85437832  0.28586965     0.12100
H382        H  0.71359543  0.83535504  0.28473199     0.12100
H383        H  0.71374270  0.83551447  0.22230919     0.12100
H384        H  0.60385865  0.85445735  0.22250661     0.12100
C385        C  0.83361583  0.69222129  0.26864227    -0.14100
C386        C  0.83773827  0.66143285  0.28717058     0.08100
C387        C  0.83886568  0.63015384  0.26908328    -0.14100
C388        C  0.83861697  0.63014984  0.23285399    -0.14100
C389        C  0.83728109  0.66143372  0.21453903     0.08100
C390        C  0.83341444  0.69222027  0.23287737    -0.14100
H391        H  0.83227438  0.71671350  0.28181828     0.12100
H392        H  0.84212506  0.60606533  0.28277066     0.12100
H393        H  0.84171422  0.60607905  0.21928386     0.12100
H394        H  0.83193975  0.71669401  0.21949093     0.12100
C395        C  0.75425410  0.73318089  0.41702113    -0.14100
C396        C  0.78947403  0.74204411  0.41612884     0.08100
C397        C  0.79869706  0.77694021  0.41824840    -0.14100
C398        C  0.77331195  0.80249529  0.41930181    -0.14100
C399        C  0.73810300  0.79385222  0.41811332     0.08100
C400        C  0.72874077  0.75886966  0.41796658    -0.14100
H401        H  0.74638477  0.70643958  0.41536906     0.12100
H402        H  0.82554767  0.78460556  0.41761073     0.12100
H403        H  0.78139698  0.82925506  0.41936851     0.12100
H404        H  0.70186461  0.75145362  0.41695996     0.12100
C405        C  0.02280338  0.35420690  0.14490379    -0.14100
C406        C  0.04114732  0.32843807  0.12735900     0.08100
C407        C  0.02275746  0.30145211  0.11197277    -0.14100
C408        C  0.98652706  0.30158387  0.11233563    -0.14100
C409        C  0.96833161  0.32870998  0.12794374     0.08100
C410        C  0.98678795  0.35439274  0.14517604    -0.14100
H411        H  0.03631903  0.37526712  0.15717634     0.12100
H412        H  0.03627661  0.28134384  0.09824653     0.12100
H413        H  0.97279482  0.28145126  0.09881074     0.12100
H414        H  0.97344737  0.37540791  0.15759476     0.12100
C415        C  0.25685094  0.28672286  0.07845358    -0.14100
C416        C  0.22181839  0.27766607  0.07569696     0.08100
C417        C  0.21315801  0.24300189  0.07038597    -0.14100
C418        C  0.23860896  0.21757280  0.07110346    -0.14100
C419        C  0.27325594  0.22621453  0.07706107     0.08100
C420        C  0.28244929  0.26114842  0.07914134    -0.14100
H421        H  0.26426903  0.31333200  0.08239178     0.12100
H422        H  0.18646996  0.23527303  0.06783278     0.12100
H423        H  0.23078124  0.19082659  0.06898560     0.12100
H424        H  0.30896616  0.26851593  0.08348646     0.12100
C425        C  0.38002896  0.17052229  0.26429727    -0.14100
C426        C  0.34890656  0.17444434  0.28283738     0.08100
C427        C  0.31827348  0.18035110  0.26460871    -0.14100
C428        C  0.31825179  0.18021222  0.22874846    -0.14100
C429        C  0.34886805  0.17421095  0.21005886     0.08100
C430        C  0.38000675  0.17040928  0.22811001    -0.14100
H431        H  0.40396001  0.16568812  0.27769190     0.12100
H432        H  0.29390421  0.18363944  0.27811291     0.12100
H433        H  0.29386263  0.18340924  0.21562737     0.12100
H434        H  0.40394667  0.16550887  0.21435088     0.12100
C435        C  0.02088779  0.35419445  0.35182104    -0.14100
C436        C  0.03952725  0.32825347  0.36870920     0.08100
C437        C  0.02147654  0.30078214  0.38414123    -0.14100
C438        C  0.98524928  0.30063964  0.38478013    -0.14100
C439        C  0.96674841  0.32799949  0.36998481     0.08100
C440        C  0.98488794  0.35404140  0.35244064    -0.14100
H441        H  0.03410355  0.37548242  0.33946324     0.12100
H442        H  0.03531127  0.28038702  0.39727122     0.12100
H443        H  0.97183074  0.28019806  0.39832774     0.12100
H444        H  0.97126115  0.37529291  0.34049268     0.12100
C445        C  0.16963156  0.32043334  0.26389455    -0.14100
C446        C  0.16834369  0.35134726  0.28243901     0.08100
C447        C  0.17015954  0.38266071  0.26413510    -0.14100
C448        C  0.17086000  0.38284083  0.22786800    -0.14100
C449        C  0.16984980  0.35170255  0.20950615     0.08100
C450        C  0.17048420  0.32061137  0.22806484    -0.14100
H451        H  0.16852397  0.29583577  0.27707876     0.12100
H452        H  0.16934965  0.40689147  0.27773662     0.12100
H453        H  0.17049611  0.40721731  0.21427632     0.12100
H454        H  0.16993537  0.29612287  0.21486174     0.12100
C455        C  0.25558790  0.28647573  0.41203724    -0.14100
C456        C  0.22061124  0.27729465  0.41557251     0.08100
C457        C  0.21205380  0.24274747  0.42209833    -0.14100
C458        C  0.23764631  0.21746602  0.42204732    -0.14100
C459        C  0.27229766  0.22618289  0.41555062     0.08100
C460        C  0.28131735  0.26106986  0.41204575    -0.14100
H461        H  0.26288956  0.31301340  0.40708957     0.12100
H462        H  0.18538588  0.23496730  0.42523261     0.12100
H463        H  0.22997282  0.19074431  0.42516581     0.12100
H464        H  0.30781805  0.26846187  0.40711865     0.12100
C465        C  0.02170292  0.65225149  0.14295682    -0.14100
C466        C  0.04040365  0.68070759  0.13053999     0.08100
C467        C  0.02235005  0.70984024  0.11888498    -0.14100
C468        C  0.98617373  0.70977716  0.11816903    -0.14100
C469        C  0.96758897  0.68065800  0.12916216     0.08100
C470        C  0.98567491  0.65221178  0.14230399    -0.14100
H471        H  0.03496322  0.62938832  0.15205473     0.12100
H472        H  0.03615991  0.73202621  0.10905884     0.12100
H473        H  0.97279496  0.73204501  0.10786071     0.12100
H474        H  0.97205302  0.62944564  0.15095232     0.12100
C475        C  0.35314907  0.99169040  0.14085923    -0.14100
C476        C  0.32615415  0.97356030  0.12529059     0.08100
C477        C  0.29843424  0.99192834  0.11104178    -0.14100
C478        C  0.29862208  0.02797155  0.11099245    -0.14100
C479        C  0.32658730  0.04598406  0.12504121     0.08100
C480        C  0.35339856  0.02751267  0.14069715    -0.14100
H481        H  0.37485833  0.97819707  0.15205458     0.12100
H482        H  0.27736306  0.97849449  0.09881339     0.12100
H483        H  0.27768299  0.04169749  0.09867014     0.12100
H484        H  0.37524246  0.04072426  0.15174157     0.12100
C485        C  0.28090077  0.75776969  0.08891199    -0.14100
C486        C  0.27120163  0.79250506  0.08581625     0.08100
C487        C  0.23621080  0.80065963  0.08106647    -0.14100
C488        C  0.21113727  0.77484633  0.08145868    -0.14100
C489        C  0.22054435  0.74030310  0.08667015     0.08100
C490        C  0.25572705  0.73186174  0.08936761    -0.14100
H491        H  0.30764499  0.75079987  0.09268546     0.12100
H492        H  0.22796684  0.82726097  0.07853768     0.12100
H493        H  0.18427434  0.78210156  0.07920845     0.12100
H494        H  0.26367908  0.70539087  0.09350381     0.12100
C495        C  0.02338263  0.65419796  0.35604393    -0.14100
C496        C  0.04145916  0.68207149  0.37009068     0.08100
C497        C  0.02287042  0.71051836  0.38251116    -0.14100
C498        C  0.98672139  0.71038125  0.38235957    -0.14100
C499        C  0.96868753  0.68176499  0.36979251     0.08100
C500        C  0.98733434  0.65405654  0.35590513    -0.14100
H501        H  0.03706271  0.63195913  0.34630224     0.12100
H502        H  0.03623347  0.73224506  0.39369488     0.12100
H503        H  0.97293583  0.73194433  0.39339445     0.12100
H504        H  0.97404731  0.63163136  0.34606079     0.12100
C505        C  0.17090679  0.62903361  0.26932598    -0.14100
C506        C  0.17356248  0.66045337  0.28700777     0.08100
C507        C  0.17866606  0.69081724  0.26799910    -0.14100
C508        C  0.17803485  0.69042483  0.23224657    -0.14100
C509        C  0.17223916  0.65967042  0.21440096     0.08100
C510        C  0.17021837  0.62864132  0.23310784    -0.14100
H511        H  0.16700485  0.60524380  0.28339963     0.12100
H512        H  0.18124541  0.71536607  0.28084246     0.12100
H513        H  0.18024848  0.71470063  0.21857912     0.12100
H514        H  0.16587864  0.60455279  0.21995237     0.12100
C515        C  0.29818277  0.99285752  0.38696114    -0.14100
C516        C  0.32462214  0.97431935  0.37038989     0.08100
C517        C  0.34985780  0.99222729  0.35134975    -0.14100
C518        C  0.34987225  0.02808355  0.35043460    -0.14100
C519        C  0.32466345  0.04672221  0.36863333     0.08100
C520        C  0.29822842  0.02887558  0.38609209    -0.14100
H521        H  0.27854906  0.97962024  0.40191349     0.12100
H522        H  0.37043464  0.97850460  0.33814172     0.12100
H523        H  0.37044129  0.04121330  0.33667276     0.12100
H524        H  0.27860227  0.04273278  0.40050075     0.12100
C525        C  0.31638547  0.84079823  0.26725370    -0.14100
C526        C  0.34730183  0.84388735  0.28559713     0.08100
C527        C  0.37881866  0.84380648  0.26720307    -0.14100
C528        C  0.37898705  0.84369459  0.23092816    -0.14100
C529        C  0.34765005  0.84362256  0.21277588     0.08100
C530        C  0.31655540  0.84065856  0.23143017    -0.14100
H531        H  0.29171002  0.84023473  0.28062691     0.12100
H532        H  0.40304706  0.84603080  0.28069736     0.12100
H533        H  0.40336822  0.84582079  0.21720009     0.12100
H534        H  0.29199207  0.83999184  0.21828136     0.12100
C535        C  0.23591687  0.80131164  0.42282565    -0.14100
C536        C  0.27082684  0.79330635  0.41678090     0.08100
C537        C  0.28061495  0.75857446  0.41394208    -0.14100
C538        C  0.25551466  0.73258947  0.41437085    -0.14100
C539        C  0.22031276  0.74095814  0.41754362     0.08100
C540        C  0.21089136  0.77541494  0.42320524    -0.14100
H541        H  0.22762798  0.82788997  0.42541130     0.12100
H542        H  0.30731863  0.75167857  0.40940919     0.12100
H543        H  0.26350595  0.70616458  0.41006024     0.12100
H544        H  0.18403031  0.78257747  0.42603178     0.12100
C545        C  0.12368688  0.52433552  0.49930210    -0.14000
C546        C  0.12338112  0.49320926  0.49761757    -0.15600
C547        C  0.02063524  0.59867891  0.00236820    -0.14000
C548        C  0.98933465  0.59865010  0.00249881    -0.15600
C549        C  0.98835446  0.41894258  0.49641145    -0.14000
C550        C  0.01958313  0.41963444  0.49628017    -0.15600
C551        C  0.88624233  0.52415484  0.00006507    -0.14000
C552        C  0.88568995  0.49298287  0.49965644    -0.15600
C553        C  0.48874532  0.12813236  0.49702100    -0.14000
C554        C  0.51997585  0.12849274  0.49906274    -0.15600
C555        C  0.41412770  0.02503723  0.99723390    -0.14000
C556        C  0.41375020  0.99384825  0.99767135    -0.15600
C557        C  0.59233079  0.02477750  0.50663850    -0.14000
C558        C  0.59246484  0.99368812  0.50676981    -0.15600
C559        C  0.51935001  0.89064461  0.00073637    -0.14000
C560        C  0.48811575  0.89090867  0.99873043    -0.15600
C561        C  0.59135842  0.95583702  0.50596561     0.85800
C562        C  0.60738362  0.93865510  0.53724833    -0.54500
C563        C  0.60640319  0.90349382  0.53661475     0.08700
C564        C  0.58889612  0.88856060  0.00412385     0.19600
C565        C  0.61044170  0.94035564  0.97520768    -0.55200
C566        C  0.60942672  0.90518227  0.97392591     0.08800
C567        C  0.55486892  0.94163642  0.50425670    -0.54700
C568        C  0.55308503  0.90660074  0.50316391     0.09400
H569        H  0.62021845  0.95303056  0.55740440     0.13900
H570        H  0.58805300  0.86000786  0.00339020    -0.00400
H571        H  0.62445293  0.95588798  0.95640264     0.14200
H572        H  0.53230402  0.95814681  0.50384391     0.14000
C573        C  0.41526830  0.95582179  0.49786295     0.85800
C574        C  0.39744687  0.93925036  0.96729632    -0.54500
C575        C  0.39904288  0.90409322  0.96705387     0.08700
C576        C  0.41868856  0.88847720  0.49802928     0.19600
C577        C  0.39840905  0.93911680  0.52944742    -0.55200
C578        C  0.40001057  0.90391415  0.52979460     0.08800
C579        C  0.45202698  0.94191978  0.49699512    -0.54700
C580        C  0.45425580  0.90684431  0.49729746     0.09400
H581        H  0.38353367  0.95401437  0.94802597     0.13900
H582        H  0.41991154  0.85992136  0.49812205    -0.00400
H583        H  0.38498054  0.95378970  0.54921121     0.14200
H584        H  0.47442220  0.95864635  0.49665962     0.14000
C585        C  0.41598597  0.06304569  0.99665951     0.85800
C586        C  0.39868280  0.07993362  0.52765302    -0.54500
C587        C  0.40026052  0.11510005  0.52751539     0.08700
C588        C  0.41937395  0.13041396  0.99580448     0.19600
C589        C  0.39863792  0.07940200  0.96559141    -0.55200
C590        C  0.40017278  0.11457943  0.96480743     0.08800
C591        C  0.45275225  0.07695209  0.99612344    -0.54700
C592        C  0.45494819  0.11206433  0.99581971     0.09400
H593        H  0.38502443  0.06536803  0.54746611     0.13900
H594        H  0.42052249  0.15897192  0.99549911    -0.00400
H595        H  0.38490669  0.06447958  0.94644973     0.14200
H596        H  0.47510081  0.06020140  0.49633411     0.14000
C597        C  0.59135273  0.06262937  0.00552401     0.85800
C598        C  0.61082823  0.07787500  0.97484737    -0.54500
C599        C  0.61005451  0.11301202  0.97318311     0.08700
C600        C  0.58955123  0.12994475  0.00312396     0.19600
C601        C  0.60720110  0.07961570  0.53680438    -0.55200
C602        C  0.60674229  0.11479437  0.53591863     0.08800
C603        C  0.55503297  0.07719795  0.00327964    -0.54700
C604        C  0.55357157  0.11226606  0.00193998     0.09400
H605        H  0.62464784  0.06217568  0.95616144     0.13900
H606        H  0.58899871  0.15850371  0.00207855    -0.00400
H607        H  0.61973874  0.06502573  0.55712698     0.14200
H608        H  0.53239642  0.06088954  0.00264505     0.14000
C609        C  0.95032167  0.42027950  0.99732023     0.85800
C610        C  0.93435133  0.40269540  0.52875862    -0.54500
C611        C  0.89905381  0.40423832  0.53016981     0.08700
C612        C  0.88276428  0.42364191  0.99934909     0.19600
C613        C  0.93306146  0.40326792  0.96667106    -0.55200
C614        C  0.89772678  0.40473648  0.96742702     0.08800
C615        C  0.93646223  0.45683162  0.99787183    -0.54700
C616        C  0.90130571  0.45908494  0.99893546     0.09400
H617        H  0.94959948  0.38891981  0.54772580     0.13900
H618        H  0.85409515  0.42486148  0.00021739    -0.00400
H619        H  0.94748731  0.38967351  0.94680580     0.14200
H620        H  0.95326723  0.47914298  0.49743060     0.14000
C621        C  0.95120477  0.59686948  0.50193217     0.85800
C622        C  0.93527714  0.61471498  0.97084849    -0.54500
C623        C  0.89996465  0.61306604  0.96986702     0.08700
C624        C  0.88362081  0.59325150  0.50060104     0.19600
C625        C  0.93360445  0.61349846  0.53292335    -0.55200
C626        C  0.89827763  0.61183407  0.53248176     0.08800
C627        C  0.93742503  0.56019789  0.50118270    -0.54700
C628        C  0.90221579  0.55790174  0.50051395     0.09400
H629        H  0.95056390  0.62861701  0.95174573     0.13900
H630        H  0.85495880  0.59195798  0.50007048    -0.00400
H631        H  0.94778672  0.62685889  0.55286101     0.14200
H632        H  0.95427929  0.53791677  0.50133735     0.14000
C633        C  0.05876431  0.59698974  0.50170568     0.85800
C634        C  0.07573739  0.61442476  0.53220542    -0.54500
C635        C  0.11106733  0.61287110  0.53187413     0.08700
C636        C  0.12640969  0.59352323  0.50045913     0.19600
C637        C  0.07514775  0.61408241  0.97019671    -0.55200
C638        C  0.11047948  0.61255560  0.96931790     0.08800
C639        C  0.07268095  0.56038990  0.50183685    -0.54700
C640        C  0.10789317  0.55812423  0.00098811     0.09400
H641        H  0.06109091  0.62805235  0.55189272     0.13900
H642        H  0.15508807  0.59231676  0.99988845    -0.00400
H643        H  0.06016359  0.62762217  0.95085727     0.14200
H644        H  0.05585812  0.53811813  0.50218408     0.14000
C645        C  0.05760634  0.42135135  0.99634495     0.85800
C646        C  0.07425719  0.40385331  0.96548201    -0.54500
C647        C  0.10954893  0.40492202  0.96507751     0.08700
C648        C  0.12522474  0.42398747  0.99632620     0.19600
C649        C  0.07380298  0.40403004  0.52752011    -0.55200
C650        C  0.10912911  0.40516446  0.52785495     0.08800
C651        C  0.07185219  0.45781761  0.99604096    -0.54700
C652        C  0.10711305  0.45964324  0.99621103     0.09400
H653        H  0.05938711  0.39029854  0.94617266     0.13900
H654        H  0.15391265  0.42482470  0.99633372    -0.00400
H655        H  0.05865560  0.39058403  0.54705784     0.14200
H656        H  0.05525082  0.48027047  0.99606079     0.14000
In657      In  0.33838168  0.87069797  0.88847369     1.36900
C658        C  0.32820109  0.93689627  0.87549263     0.76900
O659        O  0.34579264  0.88751148  0.94244458    -0.61600
O660        O  0.39069790  0.87146027  0.91489000    -0.52500
C661        C  0.29586120  0.82114134  0.90920756     0.69500
O662        O  0.28667966  0.85223336  0.90643756    -0.47400
C663        C  0.34523579  0.85162837  0.82292723     0.74200
O664        O  0.30479597  0.91814207  0.88858771    -0.59200
O665        O  0.37017149  0.84897881  0.84375785    -0.49300
O666        O  0.35589912  0.92134607  0.86818844    -0.55600
C667        C  0.37824331  0.88533963  0.94168014     0.84400
O668        O  0.32753141  0.81565945  0.90294874    -0.57500
O669        O  0.31764466  0.86297281  0.83616103    -0.60800
In670      In  0.14538527  0.67147203  0.88920584     1.36900
C671        C  0.12914925  0.63331814  0.94343828     0.76900
O672        O  0.19969909  0.68351224  0.90570513    -0.61600
O673        O  0.16218397  0.72361568  0.90564205    -0.52500
C674        C  0.16589828  0.66332903  0.82427764     0.69500
O675        O  0.16643203  0.63843290  0.84546636    -0.47400
C676        C  0.07913571  0.67959914  0.87483494     0.74200
O677        O  0.14711720  0.62090667  0.91905581    -0.59200
O678        O  0.09736426  0.70399979  0.88619377    -0.49300
O679        O  0.12363602  0.66518461  0.94149884    -0.55600
C680        C  0.19332698  0.71514636  0.91020036     0.84400
O681        O  0.15636681  0.69161136  0.83699561    -0.57500
O682        O  0.09538804  0.65198441  0.86940086    -0.60800
In683      In  0.33951148  0.86981054  0.60961079     1.36900
C684        C  0.37953401  0.88480604  0.55573269     0.76900
O685        O  0.32849363  0.81483465  0.59579849    -0.61600
O686        O  0.28738206  0.85134093  0.59467017    -0.52500
C687        C  0.34592698  0.85101477  0.67530899     0.69500
O688        O  0.37130703  0.84917530  0.65447706    -0.47400
C689        C  0.32912657  0.93599561  0.62134111     0.74200
O690        O  0.39209555  0.87151180  0.58268167    -0.59200
O691        O  0.30674757  0.91769360  0.60656038    -0.49300
O692        O  0.34705517  0.88587407  0.55511352    -0.55600
C693        C  0.29653741  0.82028591  0.59156966     0.84400
O694        O  0.31817019  0.86133890  0.66196130    -0.57500
O695        O  0.35551224  0.91987324  0.63126678    -0.60800
In696      In  0.14480304  0.67013035  0.61238282     1.36900
C697        C  0.07826280  0.67824717  0.62644070     0.76900
O698        O  0.12353523  0.66496882  0.56023409    -0.61600
O699        O  0.14847505  0.62070125  0.58101461    -0.52500
C700        C  0.19344695  0.71423669  0.59318673     0.69500
O701        O  0.16198311  0.72239125  0.59632667    -0.47400
C702        C  0.16400921  0.66187794  0.67732696     0.74200
O703        O  0.09676955  0.70261798  0.61495038    -0.59200
O704        O  0.16378267  0.63661311  0.65674276    -0.49300
O705        O  0.09441572  0.65065546  0.63239866    -0.55600
C706        C  0.12995953  0.63335882  0.55736057     0.84400
O707        O  0.19986133  0.68263385  0.59800123    -0.57500
O708        O  0.15523202  0.69020785  0.66411863    -0.60800
In709      In  0.14323969  0.34373638  0.88623127     1.36900
C710        C  0.07711596  0.33233676  0.87326286     0.76900
O711        O  0.12114854  0.35174619  0.93813321    -0.61600
O712        O  0.14619388  0.39490205  0.91502480    -0.52500
C713        C  0.19287365  0.30217575  0.90774763     0.69500
O714        O  0.16183698  0.29281554  0.90449667    -0.47400
C715        C  0.16159038  0.34980660  0.82012598     0.74200
O716        O  0.09613201  0.30963863  0.88685391    -0.59200
O717        O  0.16103009  0.37569148  0.83992111    -0.49300
O718        O  0.09245452  0.35995013  0.86533569    -0.55600
C719        C  0.12785475  0.38337140  0.93967201     0.84400
O720        O  0.19835734  0.33371238  0.90154269    -0.57500
O721        O  0.15426238  0.32169485  0.83478046    -0.60800
In722      In  0.33989302  0.14972575  0.88613568     1.36900
C723        C  0.37903215  0.13307208  0.93933932     0.76900
O724        O  0.32944690  0.20427198  0.90266226    -0.61600
O725        O  0.28822149  0.16796503  0.90330188    -0.52500
C726        C  0.34679333  0.16812434  0.82042727     0.69500
O727        O  0.37260831  0.16714991  0.84032107    -0.47400
C728        C  0.32860581  0.08416409  0.87267661     0.74200
O729        O  0.39102486  0.15172628  0.91519775    -0.59200
O730        O  0.30595365  0.10295384  0.88684986    -0.49300
O731        O  0.34721399  0.12683025  0.93757429    -0.55600
C732        C  0.29755619  0.19874908  0.90770398     0.84400
O733        O  0.31825935  0.16141149  0.83483666    -0.57500
O734        O  0.35605508  0.09955125  0.86398509    -0.60800
In735      In  0.14458465  0.34427882  0.60636078     1.36900
C736        C  0.12745376  0.38386327  0.55334602     0.76900
O737        O  0.19956629  0.33434674  0.58911001    -0.61600
O738        O  0.16310305  0.29338376  0.58791111    -0.52500
C739        C  0.16379711  0.35040892  0.67181331     0.69500
O740        O  0.16169720  0.37653768  0.65222472    -0.47400
C741        C  0.07875045  0.33235313  0.62189194     0.74200
O742        O  0.14667961  0.39544504  0.57688280    -0.59200
O743        O  0.09744831  0.31007064  0.60709935    -0.49300
O744        O  0.12066807  0.35230087  0.55566857    -0.55600
C745        C  0.19409559  0.30272853  0.58359927     0.84400
O746        O  0.15807172  0.32216084  0.65707985    -0.57500
O747        O  0.09437191  0.35959229  0.63001249    -0.60800
In748      In  0.34029270  0.14950353  0.60701248     1.36900
C749        C  0.32999488  0.08348315  0.62047681     0.76900
O750        O  0.34724429  0.12996860  0.55412818    -0.61600
O751        O  0.39198529  0.15026053  0.57831950    -0.52500
C752        C  0.29831477  0.19875370  0.58548196     0.69500
O753        O  0.28888977  0.16791017  0.58991909    -0.47400
C754        C  0.34680410  0.16785404  0.67254937     0.74200
O755        O  0.30671017  0.10221399  0.60752341    -0.59200
O756        O  0.37266945  0.16699163  0.65229231    -0.49300
O757        O  0.35750913  0.09908311  0.62779180    -0.55600
C758        C  0.37948449  0.13403914  0.55308605     0.84400
O759        O  0.33008053  0.20428507  0.59080966    -0.57500
O760        O  0.31832599  0.16108429  0.65858038    -0.60800
In761      In  0.86472133  0.67124479  0.88933663     1.36900
C762        C  0.93095165  0.67912102  0.87444377     0.76900
O763        O  0.88789155  0.66531804  0.94078465    -0.61600
O764        O  0.86245686  0.62128282  0.92059789    -0.52500
C765        C  0.81650033  0.71585046  0.90926709     0.69500
O766        O  0.84770472  0.72400953  0.90412381    -0.47400
C767        C  0.84545662  0.66361148  0.82434018     0.74200
O768        O  0.91266928  0.70334842  0.88642957    -0.59200
O769        O  0.84339257  0.63874748  0.84554764    -0.49300
O770        O  0.91472265  0.65161266  0.86849997    -0.55600
C771        C  0.88151515  0.63368875  0.94385611     0.84400
O772        O  0.81020755  0.68404564  0.90617138    -0.57500
O773        O  0.85622288  0.69136283  0.83700305    -0.60800
In774      In  0.66843425  0.87011463  0.89288436     1.36900
C775        C  0.63052954  0.88724916  0.94763230     0.76900
O776        O  0.68020096  0.81532373  0.90831602    -0.61600
O777        O  0.72058299  0.85251777  0.90921328    -0.52500
C778        C  0.66082961  0.85119608  0.82774541     0.69500
O779        O  0.63503252  0.85310176  0.84806047    -0.47400
C780        C  0.67748917  0.93520802  0.87502001     0.74200
O781        O  0.61870776  0.86682358  0.92523960    -0.59200
O782        O  0.70162927  0.91745250  0.88790873    -0.49300
O783        O  0.66184597  0.89516601  0.94352356    -0.55600
C784        C  0.71206581  0.82127047  0.91254689     0.84400
O785        O  0.68956000  0.85697374  0.84159352    -0.57500
O786        O  0.64964397  0.91907652  0.87034616    -0.60800
In787      In  0.86321463  0.67073970  0.61172037     1.36900
C788        C  0.87857026  0.63218668  0.55778709     0.76900
O789        O  0.80792299  0.68284724  0.59850338    -0.61600
O790        O  0.84526744  0.72302484  0.59609059    -0.52500
C791        C  0.84468212  0.66358717  0.67719474     0.69500
O792        O  0.84103867  0.63902314  0.65611229    -0.47400
C793        C  0.92986218  0.67839902  0.62448961     0.74200
O794        O  0.86332695  0.61937270  0.58381727    -0.59200
O795        O  0.91190971  0.70240987  0.61167383    -0.49300
O796        O  0.88121975  0.66447467  0.55788482    -0.55600
C797        C  0.81387265  0.71453630  0.59360005     0.84400
O798        O  0.85669004  0.69092004  0.66421132    -0.57500
O799        O  0.91321657  0.65141344  0.63183563    -0.60800
In800      In  0.66813298  0.87024056  0.61451775     1.36900
C801        C  0.67983650  0.93618298  0.62782236     0.76900
O802        O  0.66002408  0.88766088  0.56080441    -0.61600
O803        O  0.61563463  0.87015159  0.58841133    -0.52500
C804        C  0.71016232  0.82016480  0.59480676     0.69500
O805        O  0.71964779  0.85112071  0.59767396    -0.47400
C806        C  0.66113959  0.85160867  0.68000948     0.74200
O807        O  0.70191475  0.91764543  0.61248825    -0.59200
O808        O  0.63542941  0.85228221  0.65999388    -0.49300
O809        O  0.65279749  0.92052090  0.63709391    -0.55600
C810        C  0.62765176  0.88465923  0.56165881     0.84400
O811        O  0.67825542  0.81502635  0.60021338    -0.57500
O812        O  0.68968717  0.85876389  0.66582419    -0.60800
In813      In  0.86313820  0.34295526  0.89015688     1.36900
C814        C  0.87848283  0.38347140  0.94276531     0.76900
O815        O  0.80780755  0.33182189  0.90465414    -0.61600
O816        O  0.84519425  0.29176806  0.90855991    -0.52500
C817        C  0.84496509  0.34896821  0.82451277     0.69500
O818        O  0.84333431  0.37442807  0.84480748    -0.47400
C819        C  0.92924108  0.33184653  0.87578642     0.74200
O820        O  0.86308682  0.39531947  0.91664269    -0.59200
O821        O  0.91062117  0.30927704  0.89036786    -0.49300
O822        O  0.88172389  0.35125817  0.94331429    -0.55600
C823        C  0.81382080  0.30040306  0.91100528     0.84400
O824        O  0.85405226  0.32110651  0.83851058    -0.57500
O825        O  0.91356911  0.35916534  0.86784923    -0.60800
In826      In  0.66751037  0.14714758  0.89059995     1.36900
C827        C  0.67705606  0.08215642  0.87281534     0.76900
O828        O  0.66179897  0.12232096  0.94155884    -0.61600
O829        O  0.61828942  0.15045815  0.92346826    -0.52500
C830        C  0.71041907  0.19535397  0.91160991     0.69500
O831        O  0.71976286  0.16459285  0.90656055    -0.47400
C832        C  0.65891478  0.16891003  0.82626463     0.74200
O833        O  0.70115841  0.10019492  0.88513088    -0.59200
O834        O  0.63331864  0.16544461  0.84662629    -0.49300
O835        O  0.64899933  0.09804429  0.86827031    -0.55600
C836        C  0.63061290  0.13046261  0.94613437     0.84400
O837        O  0.67843151  0.20091146  0.90792350    -0.57500
O838        O  0.68786138  0.16316318  0.83973380    -0.60800
In839      In  0.86475934  0.34394574  0.61015689     1.36900
C840        C  0.93079041  0.33278240  0.62323796     0.76900
O841        O  0.88576104  0.35131413  0.55754727    -0.61600
O842        O  0.86378345  0.39546905  0.58150839    -0.52500
C843        C  0.81488238  0.30267959  0.58871848     0.69500
O844        O  0.84604962  0.29347182  0.59130195    -0.47400
C845        C  0.84713412  0.34963056  0.67637751     0.74200
O846        O  0.91163343  0.30961912  0.61086297    -0.59200
O847        O  0.84630213  0.37539171  0.65620852    -0.49300
O848        O  0.91564141  0.36077536  0.62985325    -0.55600
C849        C  0.88077011  0.38328853  0.55630856     0.84400
O850        O  0.80926532  0.33400181  0.59569677    -0.57500
O851        O  0.85540008  0.32171265  0.66206856    -0.60800
In852      In  0.66905706  0.14923201  0.61335936     1.36900
C853        C  0.62874520  0.13308887  0.56070336     0.76900
O854        O  0.67931942  0.20360849  0.59551832    -0.61600
O855        O  0.72088524  0.16777922  0.59586275    -0.52500
C856        C  0.66063828  0.16842876  0.67876598     0.69500
O857        O  0.63533847  0.16677764  0.65833633    -0.47400
C858        C  0.68067521  0.08355075  0.62815019     0.74200
O859        O  0.61758464  0.15215440  0.58471513    -0.59200
O860        O  0.70312615  0.10203873  0.61311699    -0.49300
O861        O  0.66038010  0.12587109  0.56237646    -0.55600
C862        C  0.71123659  0.19838147  0.59053666     0.84400
O863        O  0.68956207  0.16188831  0.66507697    -0.62300
O864        O  0.65342926  0.09926167  0.63673703    -0.60800
C865        C  0.79604330  0.24327965  0.57417753    -0.14100
C866        C  0.78724327  0.27772235  0.58079893     0.08100
C867        C  0.75219290  0.28656169  0.58448943    -0.14100
C868        C  0.72672405  0.26088158  0.58489802    -0.14100
C869        C  0.73608326  0.22604434  0.58174696     0.08100
C870        C  0.77071991  0.21771694  0.57473846    -0.14100
H871        H  0.82274372  0.23575603  0.57077472     0.12100
H872        H  0.74465956  0.31301885  0.58935677     0.12100
H873        H  0.70020675  0.26801581  0.59004590     0.12100
H874        H  0.77863677  0.19105967  0.57172104     0.12100
C875        C  0.68677021  0.18423888  0.77050243    -0.14100
C876        C  0.65637733  0.17640811  0.78894130     0.08100
C877        C  0.62575751  0.17067401  0.77058340    -0.14100
C878        C  0.62630872  0.17024587  0.73436801    -0.14100
C879        C  0.65748833  0.17548607  0.71615403     0.08100
C880        C  0.68735610  0.18362648  0.73465731    -0.14100
H881        H  0.71075280  0.18899666  0.78385221     0.12100
H882        H  0.60202072  0.16436614  0.78412387     0.12100
H883        H  0.60293442  0.16375559  0.72075662     0.12100
H884        H  0.71172122  0.18802216  0.72141096     0.12100
C885        C  0.83567376  0.32015144  0.76838256    -0.14100
C886        C  0.83905374  0.35089389  0.78690521     0.08100
C887        C  0.84120321  0.38215489  0.76861022    -0.14100
C888        C  0.84204004  0.38229437  0.73239232    -0.14100
C889        C  0.84067665  0.35117839  0.71405407     0.08100
C890        C  0.83652645  0.32028462  0.73252255    -0.14100
H891        H  0.83381447  0.29565036  0.78167783     0.12100
H892        H  0.84411957  0.40620773  0.78223516     0.12100
H893        H  0.84547062  0.40646809  0.71883841     0.12100
H894        H  0.83520954  0.29588490  0.71922310     0.12100
C895        C  0.75143108  0.28342042  0.91380598    -0.14100
C896        C  0.78638836  0.27488854  0.91816704     0.08100
C897        C  0.79535326  0.24051174  0.92510886    -0.14100
C898        C  0.77015408  0.21480971  0.92518531    -0.14100
C899        C  0.73552338  0.22299300  0.91852382     0.08100
C900        C  0.72614657  0.25766579  0.91404956    -0.14100
H901        H  0.74383592  0.30973905  0.90827603     0.12100
H902        H  0.82204779  0.23322451  0.92869719     0.12100
H903        H  0.77807631  0.18822906  0.92883473     0.12100
H904        H  0.69968390  0.26462244  0.90869723     0.12100
C905        C  0.65755653  0.99194470  0.64991505    -0.14100
C906        C  0.68387608  0.97357052  0.63300529     0.08100
C907        C  0.71177992  0.99171408  0.61835345    -0.14100
C908        C  0.71205672  0.02779286  0.61853905    -0.14100
C909        C  0.68440344  0.04608816  0.63338846     0.08100
C910        C  0.65782946  0.02780076  0.65009702    -0.14100
H911        H  0.63586546  0.97866718  0.66164104     0.12100
H912        H  0.73249386  0.97809194  0.60527456     0.12100
H913        H  0.73289046  0.04130379  0.60557671     0.12100
H914        H  0.63626524  0.04121876  0.66194991     0.12100
C915        C  0.75131484  0.73176253  0.59259128    -0.14100
C916        C  0.78632052  0.74027974  0.58765446     0.08100
C917        C  0.79519923  0.77468661  0.58073382    -0.14100
C918        C  0.76991344  0.80033758  0.58092178    -0.14100
C919        C  0.73523426  0.79221239  0.58808245     0.08100
C920        C  0.72592708  0.75753283  0.59281635    -0.14100
H921        H  0.74374704  0.70540172  0.59806717     0.12100
H922        H  0.82187382  0.78199928  0.57667789     0.12100
H923        H  0.77784134  0.82688928  0.57700627     0.12100
H924        H  0.69944193  0.75057695  0.59847450     0.12100
C925        C  0.65109962  0.99050443  0.85658612    -0.14100
C926        C  0.68028362  0.97242006  0.86800031     0.08100
C927        C  0.71034828  0.99077811  0.87617381    -0.14100
C928        C  0.71027476  0.02681886  0.87549028    -0.14100
C929        C  0.68012189  0.04485118  0.86664917     0.08100
C930        C  0.65102322  0.02635528  0.85591178    -0.14100
H931        H  0.62762212  0.97702547  0.84993196     0.12100
H932        H  0.73326838  0.97737309  0.88483196     0.12100
H933        H  0.73311523  0.04052374  0.88368992     0.12100
H934        H  0.62747242  0.03956471  0.84880421     0.12100
C935        C  0.62759368  0.84925482  0.77214590    -0.14100
C936        C  0.65862970  0.84496491  0.79024453     0.08100
C937        C  0.68925600  0.83881247  0.77159545    -0.14100
C938        C  0.68935823  0.83890647  0.73576392    -0.14100
C939        C  0.65883573  0.84513419  0.71751124     0.08100
C940        C  0.62768724  0.84929688  0.73596006    -0.14100
H941        H  0.60367736  0.85438380  0.78586882     0.12100
H942        H  0.71359884  0.83535457  0.78473065     0.12100
H943        H  0.71374521  0.83551250  0.72230762     0.12100
H944        H  0.60386320  0.85446157  0.72250606     0.12100
C945        C  0.83362134  0.69222358  0.76864154    -0.14100
C946        C  0.83773687  0.66143416  0.78716983     0.08100
C947        C  0.83885550  0.63015496  0.76908227    -0.14100
C948        C  0.83860613  0.63015127  0.73285291    -0.14100
C949        C  0.83727821  0.66143555  0.71453798     0.08100
C950        C  0.83341903  0.69222290  0.73287664    -0.14100
H951        H  0.83228627  0.71671617  0.78181756     0.12100
H952        H  0.84210881  0.60606533  0.78276967     0.12100
H953        H  0.84169697  0.60607941  0.71928239     0.12100
H954        H  0.83195014  0.71669680  0.71949070     0.12100
C955        C  0.75425416  0.73318015  0.91702337    -0.14100
C956        C  0.78947419  0.74204293  0.91613044     0.08100
C957        C  0.79869772  0.77693893  0.91825099    -0.14100
C958        C  0.77331282  0.80249424  0.91930571    -0.14100
C959        C  0.73810378  0.79385174  0.91811733     0.08100
C960        C  0.72874113  0.75886925  0.91797006    -0.14100
H961        H  0.74638448  0.70643905  0.91537074     0.12100
H962        H  0.82554798  0.78460385  0.91761305     0.12100
H963        H  0.78139829  0.82925424  0.91937293     0.12100
H964        H  0.70186491  0.75145358  0.91696366     0.12100
C965        C  0.02280492  0.35418237  0.64493096    -0.14100
C966        C  0.04114810  0.32842174  0.62737339     0.08100
C967        C  0.02275761  0.30144273  0.61197594    -0.14100
C968        C  0.98652731  0.30157531  0.61233907    -0.14100
C969        C  0.96833267  0.32869528  0.62795870     0.08100
C970        C  0.98678942  0.35436905  0.64520380    -0.14100
H971        H  0.03632152  0.37523706  0.65721291     0.12100
H972        H  0.03627606  0.28134102  0.59823967     0.12100
H973        H  0.97279463  0.28144979  0.59880424     0.12100
H974        H  0.97344930  0.37537856  0.65763177     0.12100
C975        C  0.25684790  0.28672100  0.57845391    -0.14100
C976        C  0.22181583  0.27766263  0.57569547     0.08100
C977        C  0.21315754  0.24299801  0.57038406    -0.14100
C978        C  0.23860978  0.21757006  0.57110351    -0.14100
C979        C  0.27325602  0.22621327  0.57706349     0.08100
C980        C  0.28244742  0.26114768  0.57914369    -0.14100
H981        H  0.26426444  0.31333022  0.58239241     0.12100
H982        H  0.18646988  0.23526797  0.56782925     0.12100
H983        H  0.23078349  0.19082313  0.56898513     0.12100
H984        H  0.30896378  0.26851657  0.58349040     0.12100
C985        C  0.38003884  0.17052423  0.76429758    -0.14100
C986        C  0.34891653  0.17444906  0.78283730     0.08100
C987        C  0.31828408  0.18035808  0.76460831    -0.14100
C988        C  0.31826274  0.18021830  0.72874817    -0.14100
C989        C  0.34887845  0.17421395  0.71005886     0.08100
C990        C  0.38001685  0.17041034  0.72811023    -0.14100
H991        H  0.40396921  0.16568825  0.77769248     0.12100
H992        H  0.29391524  0.18364852  0.77811205     0.12100
H993        H  0.29387356  0.18341698  0.71562680     0.12100
H994        H  0.40395643  0.16550750  0.71435128     0.12100
C995        C  0.02088796  0.35417372  0.85180917    -0.14100
C996        C  0.03952661  0.32823630  0.86870355     0.08100
C997        C  0.02147521  0.30076699  0.88413859    -0.14100
C998        C  0.98524782  0.30062452  0.88477525    -0.14100
C999        C  0.96674777  0.32798225  0.86997492     0.08100
C1000       C  0.98488823  0.35402063  0.85242656    -0.14100
H1001       H  0.03410439  0.37546003  0.83944853     0.12100
H1002       H  0.03530921  0.28037452  0.89727298     0.12100
H1003       H  0.97182834  0.28018521  0.89832618     0.12100
H1004       H  0.97126212  0.37527030  0.84047447     0.12100
C1005       C  0.16964789  0.32044174  0.76389565    -0.14100
C1006       C  0.16833926  0.35135486  0.78244020     0.08100
C1007       C  0.17013580  0.38266936  0.76413626    -0.14100
C1008       C  0.17083800  0.38284961  0.72786920    -0.14100
C1009       C  0.16984875  0.35171077  0.70950704     0.08100
C1010       C  0.17050240  0.32062007  0.72806586    -0.14100
H1011       H  0.16855548  0.29584329  0.77708003     0.12100
H1012       H  0.16930946  0.40689967  0.77773774     0.12100
H1013       H  0.17045867  0.40722635  0.71427729     0.12100
H1014       H  0.16996988  0.29613124  0.71486263     0.12100
C1015       C  0.25558852  0.28647456  0.91204328    -0.14100
C1016       C  0.22061180  0.27729141  0.91557235     0.08100
C1017       C  0.21205529  0.24274310  0.92209300    -0.14100
C1018       C  0.23764890  0.21746310  0.92204291    -0.14100
C1019       C  0.27230067  0.22618206  0.91555201     0.08100
C1020       C  0.28131926  0.26106988  0.91205258    -0.14100
H1021       H  0.26288960  0.31301369  0.90709986     0.12100
H1022       H  0.18538737  0.23496115  0.92522254     0.12100
H1023       H  0.22997592  0.19074038  0.92515717     0.12100
H1024       H  0.30782063  0.26846361  0.90713022     0.12100
C1025       C  0.02170419  0.65223965  0.64295361    -0.14100
C1026       C  0.04040497  0.68069963  0.63054567     0.08100
C1027       C  0.02235129  0.70983499  0.61889798    -0.14100
C1028       C  0.98617520  0.70977187  0.61818065    -0.14100
C1029       C  0.96759033  0.68064963  0.62916529     0.08100
C1030       C  0.98567614  0.65219980  0.64229946    -0.14100
H1031       H  0.03496455  0.62937408  0.65204534     0.12100
H1032       H  0.03616149  0.73202450  0.60907823     0.12100
H1033       H  0.97279664  0.73204242  0.60787831     0.12100
H1034       H  0.97205395  0.62943085  0.65094089     0.12100
C1035       C  0.35314844  0.99168986  0.64086951    -0.14100
C1036       C  0.32615559  0.97355979  0.62529714     0.08100
C1037       C  0.29843817  0.99192822  0.61104401    -0.14100
C1038       C  0.29862694  0.02797136  0.61099331    -0.14100
C1039       C  0.32659028  0.04598399  0.62504534     0.08100
C1040       C  0.35339862  0.02751247  0.64070641    -0.14100
H1041       H  0.37485543  0.97819632  0.65206842     0.12100
H1042       H  0.27736863  0.97849455  0.59881260     0.12100
H1043       H  0.27768968  0.04169744  0.59866703     0.12100
H1044       H  0.37524076  0.04072395  0.65175368     0.12100
C1045       C  0.28090146  0.75776841  0.58891013    -0.14100
C1046       C  0.27120244  0.79250372  0.58581295     0.08100
C1047       C  0.23621155  0.80065812  0.58106336    -0.14100
C1048       C  0.21113790  0.77484494  0.58145722    -0.14100
C1049       C  0.22054481  0.74030187  0.58666987     0.08100
C1050       C  0.25572757  0.73186059  0.58936724    -0.14100
H1051       H  0.30764569  0.75079871  0.59268373     0.12100
H1052       H  0.22796762  0.82725940  0.57853369     0.12100
H1053       H  0.18427479  0.78210026  0.57920719     0.12100
H1054       H  0.26367959  0.70538964  0.59350449     0.12100
C1055       C  0.02338340  0.65420568  0.85604026    -0.14100
C1056       C  0.04145910  0.68207742  0.87009160     0.08100
C1057       C  0.02286978  0.71052255  0.88251523    -0.14100
C1058       C  0.98672061  0.71038467  0.88236350    -0.14100
C1059       C  0.96868756  0.68176946  0.86979278     0.08100
C1060       C  0.98733505  0.65406364  0.85590115    -0.14100
H1061       H  0.03706378  0.63196893  0.84629578     0.12100
H1062       H  0.03623209  0.73224762  0.89370199     0.12100
H1063       H  0.97293480  0.73194551  0.89340114     0.12100
H1064       H  0.97404868  0.63163961  0.84605357     0.12100
C1065       C  0.17090603  0.62903512  0.76933000    -0.14100
C1066       C  0.17355774  0.66045551  0.78701146     0.08100
C1067       C  0.17865752  0.69081967  0.76800229    -0.14100
C1068       C  0.17802747  0.69042653  0.73224978    -0.14100
C1069       C  0.17223671  0.65967112  0.71440424     0.08100
C1070       C  0.17021890  0.62864210  0.73311167    -0.14100
H1071       H  0.16700699  0.60524501  0.78340399     0.12100
H1072       H  0.18123356  0.71536906  0.78084512     0.12100
H1073       H  0.18023848  0.71470249  0.71858218     0.12100
H1074       H  0.16588288  0.60455277  0.71995639     0.12100
C1075       C  0.29817880  0.99286167  0.88694201    -0.14100
C1076       C  0.32462509  0.97432298  0.87038221     0.08100
C1077       C  0.34986853  0.99223050  0.85135208    -0.14100
C1078       C  0.34988403  0.02808660  0.85043675    -0.14100
C1079       C  0.32466832  0.04672583  0.86862530     0.08100
C1080       C  0.29822519  0.02887989  0.88607277    -0.14100
H1081       H  0.27853841  0.97962470  0.90188617     0.12100
H1082       H  0.37045107  0.97850740  0.83815247     0.12100
H1083       H  0.37045911  0.04121573  0.83668354     0.12100
H1084       H  0.27859365  0.04273723  0.90047260     0.12100
C1085       C  0.31638619  0.84079637  0.76725227    -0.14100
C1086       C  0.34730250  0.84388785  0.78559535     0.08100
C1087       C  0.37881923  0.84380606  0.76720118    -0.14100
C1088       C  0.37898754  0.84369194  0.73092631    -0.14100
C1089       C  0.34765038  0.84361863  0.71277430     0.08100
C1090       C  0.31655583  0.84065433  0.73142875    -0.14100
H1091       H  0.29171066  0.84023307  0.78062564     0.12100
H1092       H  0.40304796  0.84603164  0.78069538     0.12100
H1093       H  0.40336843  0.84581798  0.71719808     0.12100
H1094       H  0.29199298  0.83998632  0.71828038     0.12100
C1095       C  0.23591913  0.80131293  0.92283815    -0.14100
C1096       C  0.27082745  0.79330901  0.91678105     0.08100
C1097       C  0.28061479  0.75857779  0.91393234    -0.14100
C1098       C  0.25551491  0.73259267  0.91436333    -0.14100
C1099       C  0.22031383  0.74096022  0.91754804     0.08100
C1100       C  0.21089381  0.77541576  0.92321983    -0.14100
H1101       H  0.22763115  0.82789064  0.92543207     0.12100
H1102       H  0.30731723  0.75168284  0.90938974     0.12100
H1103       H  0.26350529  0.70616871  0.91004440     0.12100
H1104       H  0.18403297  0.78257730  0.92605600     0.12100
C1105       C  0.12368826  0.52433382  0.99929203    -0.14000
C1106       C  0.12338172  0.49320789  0.99760452    -0.15600
C1107       C  0.02063332  0.59868048  0.50236062    -0.14000
C1108       C  0.98933273  0.59865079  0.50249194    -0.15600
C1109       C  0.98835540  0.41893890  0.99642480    -0.14000
C1110       C  0.01958400  0.41963155  0.99629332    -0.15600
C1111       C  0.88623914  0.52415633  0.50006541    -0.14000
C1112       C  0.88569279  0.49298147  0.99965401    -0.15600
C1113       C  0.48874231  0.12813273  0.99702329    -0.14000
C1114       C  0.51997281  0.12849396  0.99906405    -0.15600
C1115       C  0.41412911  0.02503807  0.49723162    -0.14000
C1116       C  0.41375100  0.99384909  0.49766881    -0.15600
C1117       C  0.59233165  0.02478109  0.00663950    -0.14000
C1118       C  0.59246712  0.99369170  0.00677043    -0.15600
C1119       C  0.51934749  0.89064106  0.50074137    -0.14000
C1120       C  0.48811330  0.89090672  0.49873613    -0.15600
loop_ 
_geom_bond_atom_site_label_1 
_geom_bond_atom_site_label_2 
_geom_bond_distance 
_geom_bond_site_symmetry_2 
_ccdc_geom_bond_type 
C1            C2   1.522       .  S
C1            C7   1.518       .  S
C1          C565   1.526   1_554  S
C1         C1118   1.472       .  S
C2            H9   1.088       .  S
C2            C3   1.367       .  D
C3          C564   1.554       .  S
C3          C250   1.472       .  S
C4            C6   1.551       .  S
C4          C563   1.554       .  S
C4          C568   1.553       .  S
C4           H10   1.110       .  S
C5          C561   1.526       .  S
C5           H11   1.087       .  S
C5            C6   1.368       .  D
C6          C215   1.480       .  S
C7           H12   1.083       .  S
C7            C8   1.364       .  D
C8          C564   1.553       .  S
C8          C559   1.449       .  S
C13          C19   1.521       .  S
C13          C17   1.528   1_556  S
C13         C574   1.525       .  S
C13         C556   1.479       .  S
C14         C573   1.525       .  S
C14          H21   1.088       .  S
C14          C15   1.367       .  D
C15         C576   1.551       .  S
C15         C107   1.474       .  S
C16          C20   1.550       .  S
C16          C18   1.549   1_556  S
C16         C575   1.551       .  S
C16          H22   1.110       .  S
C17          H23   1.087       .  S
C17          C18   1.369       .  D
C18         C124   1.475       .  S
C19          H24   1.083       .  S
C19          C20   1.365       .  D
C20         C560   1.450       .  S
C25          C31   1.522       .  S
C25          C29   1.524       .  S
C25         C586   1.525       .  S
C25        C1115   1.479       .  S
C26         C585   1.525   1_554  S
C26          H33   1.088       .  S
C26          C27   1.368       .  D
C27         C588   1.549   1_554  S
C27         C198   1.473       .  S
C28          C32   1.550       .  S
C28          C30   1.551       .  S
C28         C587   1.549       .  S
C28          H34   1.110       .  S
C29          H35   1.088       .  S
C29          C30   1.368       .  D
C30         C163   1.474       .  S
C31         H596   1.082       .  S
C31          C32   1.367       .  D
C32         C553   1.450       .  S
H36         C591   1.082       .  S
C37          C38   1.524       .  S
C37          C43   1.518       .  S
C37         C601   1.521       .  S
C37         C557   1.471       .  S
C38          H45   1.088       .  S
C38          C39   1.367       .  D
C39          C40   1.552       .  S
C39         C276   1.476       .  S
C40          C44   1.554       .  S
C40         C602   1.557       .  S
C40          H46   1.110       .  S
C41         C597   1.521       .  S
C41          H47   1.088       .  S
C41          C42   1.367       .  D
C42         C600   1.557       .  S
C42         C293   1.477       .  S
C43          H48   1.082       .  S
C43          C44   1.364       .  D
C44         C554   1.449       .  S
C49          C55   1.518       .  S
C49          C53   1.525       .  S
C49         C610   1.525       .  S
C49         C549   1.473       .  S
C50         C609   1.525   1_554  S
C50          H57   1.088       .  S
C50          C51   1.368       .  D
C51         C612   1.552   1_554  S
C51         C289   1.476       .  S
C52          C56   1.553       .  S
C52          C54   1.553       .  S
C52         C611   1.552       .  S
C52          H58   1.110       .  S
C53          H59   1.088       .  S
C53          C54   1.368       .  D
C54         C254   1.475       .  S
C55         H620   1.084       .  S
C55          C56   1.363       .  D
C56         C552   1.449       .  S
H60         C615   1.084       .  S
C61          C67   1.522       .  S
C61          C65   1.525       .  S
C61         C622   1.526   1_554  S
C61         C548   1.477       .  S
C62         C621   1.526       .  S
C62          H69   1.088       .  S
C62          C63   1.369       .  D
C63         C624   1.550       .  S
C63         C211   1.477       .  S
C64          C68   1.550       .  S
C64          C66   1.550       .  S
C64         C623   1.550   1_554  S
C64          H70   1.110       .  S
C65          H71   1.088       .  S
C65          C66   1.369       .  D
C66         C228   1.473       .  S
C67          H72   1.084       .  S
C67          C68   1.366       .  D
C68         C551   1.450       .  S
C73          C74   1.523       .  S
C73          C79   1.520       .  S
C73         C637   1.525   1_554  S
C73         C547   1.477       .  S
C74          H81   1.088       .  S
C74          C75   1.368       .  D
C75          C76   1.551       .  S
C75         C146   1.473       .  S
C76         C640   1.551       .  S
C76         C638   1.549   1_554  S
C76         H642   1.110   1_554  S
C77         C633   1.525       .  S
C77          H83   1.087       .  S
C77          C78   1.368       .  D
C78         C636   1.549       .  S
C78         C111   1.472       .  S
C79          H84   1.083       .  S
C79         C640   1.365       .  D
C80         C636   1.551       .  S
C80         C639   1.365       .  D
C80         C545   1.449       .  S
H82         C636   1.110       .  S
C85          C86   1.520       .  S
C85          C91   1.520       .  S
C85         C649   1.524       .  S
C85         C550   1.473       .  S
C86          H93   1.088       .  S
C86          C87   1.366       .  D
C87          C88   1.554       .  S
C87         C159   1.474       .  S
C88          C92   1.552       .  S
C88         C650   1.551       .  S
C88          H94   1.110       .  S
C89         C645   1.524   1_554  S
C89          H95   1.088       .  S
C89          C90   1.368       .  D
C90         C648   1.551   1_554  S
C90         C176   1.475       .  S
C91          H96   1.083       .  S
C91          C92   1.366       .  D
C92         C546   1.450       .  S
In97         O99   2.222       .  S
In97        O100   2.278       .  S
In97        O108   2.248       .  S
In97        O102   2.231       .  S
In97        O104   2.255       .  S
In97        O105   2.286       .  S
In97        O106   2.221       .  S
In97        O109   2.216       .  S
C98         O104   1.265       .  A
C98         O106   1.261       .  A
C98         C516   1.473       .  S
O99         C107   1.258       .  A
O100        C107   1.267       .  A
C101        O108   1.265       .  A
C101        O102   1.263       .  A
C101        C536   1.479       .  S
C103        O105   1.269       .  A
C103        O109   1.261       .  A
C103        C526   1.486       .  S
In110       O112   2.252       .  S
In110       O113   2.226       .  S
In110       O121   2.211       .  S
In110       O115   2.280       .  S
In110       O117   2.279       .  S
In110       O118   2.250       .  S
In110       O119   2.207       .  S
In110       O122   2.223       .  S
C111        O117   1.268       .  A
C111        O119   1.258       .  A
O112        C120   1.266       .  A
O113        C120   1.263       .  A
C114        O121   1.261       .  A
C114        O115   1.268       .  A
C114        C506   1.482       .  S
C116        O118   1.265       .  A
C116        O122   1.261       .  A
C116        C496   1.474       .  S
C120        C539   1.479       .  S
In123       O125   2.247       .  S
In123       O126   2.224       .  S
In123       O134   2.214       .  S
In123       O128   2.286       .  S
In123       O130   2.281       .  S
In123       O131   2.254       .  S
In123       O132   2.224       .  S
In123       O135   2.214       .  S
C124        O130   1.267       .  A
C124        O132   1.258       .  A
O125        C133   1.266       .  A
O126        C133   1.263       .  A
C127        O134   1.261       .  A
C127        O128   1.270       .  A
C127        C529   1.486       .  S
C129        O131   1.264       .  A
C129        O135   1.260       .  A
C129        C476   1.473       .  S
C133        C486   1.477       .  S
In136       O138   2.206       .  S
In136       O139   2.283       .  S
In136       O147   2.250       .  S
In136       O141   2.222       .  S
In136       O143   2.248       .  S
In136       O144   2.283       .  S
In136       O145   2.225       .  S
In136       O148   2.202       .  S
C137        O143   1.265       .  A
C137        O145   1.262       .  A
C137        C466   1.475       .  S
O138        C146   1.258       .  A
O139        C146   1.268       .  A
C140        O147   1.266       .  A
C140        O141   1.263       .  A
C140        C489   1.478       .  S
C142        O144   1.270       .  A
C142        O148   1.260       .  A
C142        C509   1.482       .  S
In149       O151   2.209       .  S
In149       O152   2.289       .  S
In149       O160   2.252       .  S
In149       O154   2.221       .  S
In149       O156   2.254       .  S
In149       O157   2.285       .  S
In149       O158   2.223       .  S
In149       O161   2.218       .  S
C150        O156   1.265       .  A
C150        O158   1.262       .  A
C150        C436   1.475       .  S
O151        C159   1.258       .  A
O152        C159   1.268       .  A
C153        O160   1.265       .  A
C153        O154   1.262       .  A
C153        C456   1.477       .  S
C155        O157   1.269       .  A
C155        O161   1.261       .  A
C155        C446   1.488       .  S
In162       O164   2.253       .  S
In162       O165   2.219       .  S
In162       O173   2.216       .  S
In162       O167   2.278       .  S
In162       O169   2.289       .  S
In162       O170   2.242       .  S
In162       O171   2.207       .  S
In162       O174   2.222       .  S
C163        O169   1.269       .  A
C163        O171   1.257       .  A
O164        C172   1.266       .  A
O165        C172   1.262       .  A
C166        O173   1.261       .  A
C166        O167   1.269       .  A
C166        C426   1.483       .  S
C168        O170   1.265       .  A
C168        O174   1.262       .  A
C168        C519   1.472       .  S
C172        C459   1.477       .  S
In175       O177   2.258       .  S
In175       O178   2.223       .  S
In175       O186   2.215       .  S
In175       O180   2.288       .  S
In175       O182   2.292       .  S
In175       O183   2.257       .  S
In175       O184   2.206       .  S
In175       O187   2.224       .  S
C176        O182   1.269       .  A
C176        O184   1.257       .  A
O177        C185   1.266       .  A
O178        C185   1.263       .  A
C179        O186   1.261       .  A
C179        O180   1.270       .  A
C179        C449   1.488       .  S
C181        O183   1.265       .  A
C181        O187   1.262       .  A
C181        C406   1.476       .  S
C185        C416   1.480       .  S
In188       O190   2.210       .  S
In188       O191   2.282       .  S
In188       O199   2.253       .  S
In188       O193   2.219       .  S
In188       O195   2.251       .  S
In188       O196   2.277       .  S
In188       O197   2.220       .  S
In188       O200   2.220       .  S
C189        O195   1.265       .  A
C189        O197   1.260       .  A
C189        C479   1.473       .  S
O190        C198   1.258       .  A
O191        C198   1.268       .  A
C192        O199   1.267       .  A
C192        O193   1.263       .  A
C192        C419   1.479       .  S
C194        O196   1.269       .  A
C194        O200   1.261       .  A
C194        C429   1.484       .  S
In201       O203   2.211       .  S
In201       O204   2.287       .  S
In201       O212   2.259       .  S
In201       O206   2.229       .  S
In201       O208   2.238       .  S
In201       O209   2.285       .  S
In201       O210   2.227       .  S
In201       O213   2.205       .  S
C202        O208   1.265       .  A
C202        O210   1.263       .  A
C202        C499   1.473       .  S
O203        C211   1.258       .  A
O204        C211   1.269       .  A
C205        O212   1.266       .  A
C205        O206   1.262       .  A
C205        C396   1.482       .  S
C207        O209   1.270       .  A
C207        O213   1.260       .  A
C207        C386   1.482       .  S
In214       O216   2.257       .  S
In214       O217   2.227       .  S
In214       O225   2.211       .  S
In214       O219   2.280       .  S
In214       O221   2.293       .  S
In214       O222   2.250       .  S
In214       O223   2.214       .  S
In214       O226   2.216       .  S
C215        O221   1.269       .  A
C215        O223   1.259       .  A
O216        C224   1.267       .  A
O217        C224   1.264       .  A
C218        O225   1.260       .  A
C218        O219   1.270       .  A
C218        C376   1.483       .  S
C220        O222   1.267       .  A
C220        O226   1.262       .  A
C220        C366   1.474       .  S
C224        C399   1.482       .  S
In227       O229   2.253       .  S
In227       O230   2.230       .  S
In227       O238   2.203       .  S
In227       O232   2.279       .  S
In227       O234   2.276       .  S
In227       O235   2.251       .  S
In227       O236   2.216       .  S
In227       O239   2.222       .  S
C228        O234   1.267       .  A
C228        O236   1.259       .  A
O229        C237   1.266       .  A
O230        C237   1.263       .  A
C231        O238   1.261       .  A
C231        O232   1.270       .  A
C231        C389   1.480       .  S
C233        O235   1.266       .  A
C233        O239   1.261       .  A
C233        C469   1.475       .  S
C237        C356   1.480       .  S
In240       O242   2.218       .  S
In240       O243   2.279       .  S
In240       O251   2.252       .  S
In240       O245   2.221       .  S
In240       O247   2.260       .  S
In240       O248   2.273       .  S
In240       O249   2.224       .  S
In240       O252   2.213       .  S
C241        O247   1.264       .  A
C241        O249   1.260       .  A
C241        C346   1.476       .  S
O242        C250   1.258       .  A
O243        C250   1.266       .  A
C244        O251   1.266       .  A
C244        O245   1.263       .  A
C244        C359   1.478       .  S
C246        O248   1.269       .  A
C246        O252   1.261       .  A
C246        C379   1.481       .  S
In253       O255   2.251       .  S
In253       O256   2.220       .  S
In253       O264   2.215       .  S
In253       O258   2.280       .  S
In253       O260   2.284       .  S
In253       O261   2.255       .  S
In253       O262   2.220       .  S
In253       O265   2.219       .  S
C254        O260   1.267       .  A
C254        O262   1.258       .  A
O255        C263   1.266       .  A
O256        C263   1.262       .  A
C257        O264   1.261       .  A
C257        O258   1.269       .  A
C257        C326   1.484       .  S
C259        O261   1.264       .  A
C259        O265   1.261       .  A
C259        C439   1.474       .  S
C263        C336   1.477       .  S
In266       O268   2.210       .  S
In266       O269   2.288       .  S
In266       O277   2.239       .  S
In266       O271   2.227       .  S
In266       O273   2.250       .  S
In266       O274   2.282       .  S
In266       O275   2.221       .  S
In266       O278   2.210       .  S
C267        O273   1.266       .  A
C267        O275   1.262       .  A
C267        C369   1.475       .  S
O268        C276   1.259       .  A
O269        C276   1.269       .  A
C270        O277   1.265       .  A
C270        O271   1.264       .  A
C270        C339   1.475       .  S
C272        O274   1.270       .  A
C272        O278   1.260       .  A
C272        C316   1.484       .  S
In279       O281   2.213       .  S
In279       O282   2.287       .  S
In279       O290   2.258       .  S
In279       O284   2.220       .  S
In279       O286   2.251       .  S
In279       O287   2.282       .  S
In279       O288   2.218       .  S
In279       O291   2.220       .  S
C280        O286   1.266       .  A
C280        O288   1.262       .  A
C280        C409   1.474       .  S
O281        C289   1.258       .  A
O282        C289   1.269       .  A
C283        O290   1.266       .  A
C283        O284   1.262       .  A
C283        C306   1.479       .  S
C285        O287   1.270       .  A
C285        O291   1.261       .  A
C285        C329   1.486       .  S
In292       O294   2.255       .  S
In292       O295   2.231       .  S
In292       O303   2.226       .  S
In292       O297   2.280       .  S
In292       O299   2.293       .  S
In292       O300   2.258       .  S
In292       O301   2.213       .  S
In292       O304   2.222       .  S
C293        O299   1.267       .  A
C293        O301   1.258       .  A
O294        C302   1.265       .  A
O295        C302   1.263       .  A
C296        O303   1.261       .  A
C296        O297   1.268       .  A
C296        C319   1.485       .  S
C298        O300   1.265       .  A
C298        O304   1.261       .  A
C298        C349   1.476       .  S
C302        C309   1.479       .  S
C305        C306   1.405       .  A
C305        C310   1.395       .  A
C305        H311   1.081       .  S
C306        C307   1.405       .  A
C307        C308   1.403       .  A
C307        H312   1.085       .  S
C308        C309   1.407       .  A
C308        H313   1.080       .  S
C309        C310   1.403       .  A
C310        H314   1.086       .  S
C315        C316   1.405       .  A
C315        C320   1.395       .  A
C315        H321   1.084       .  S
C316        C317   1.407       .  A
C317        C318   1.409       .  A
C317        H322   1.082       .  S
C318        C319   1.408       .  A
C318        H323   1.082       .  S
C319        C320   1.404       .  A
C320        H324   1.084       .  S
C325        C326   1.404       .  A
C325        C330   1.395       .  A
C325        H331   1.083       .  S
C326        C327   1.407       .  A
C327        C328   1.409       .  A
C327        H332   1.083       .  S
C328        C329   1.408       .  A
C328        H333   1.083       .  S
C329        C330   1.405       .  A
C330        H334   1.083       .  S
C335        C336   1.404       .  A
C335        C340   1.400       .  A
C335        H341   1.085       .  S
C336        C337   1.405       .  A
C337        C338   1.396       .  A
C337        H342   1.081       .  S
C338        C339   1.403       .  A
C338        H343   1.086       .  S
C339        C340   1.405       .  A
C340        H344   1.081       .  S
C345        C346   1.404       .  A
C345        C350   1.393   1_565  A
C345        H351   1.082       .  S
C346        C347   1.405       .  A
C347        C348   1.402   1_565  A
C347        H352   1.084       .  S
C348        C349   1.406       .  A
C348        H353   1.082       .  S
C349        C350   1.403       .  A
C350        H354   1.084       .  S
C355        C356   1.406       .  A
C355        C360   1.402       .  A
C355        H361   1.085       .  S
C356        C357   1.405       .  A
C357        C358   1.396       .  A
C357        H362   1.081       .  S
C358        C359   1.404       .  A
C358        H363   1.086       .  S
C359        C360   1.406       .  A
C360        H364   1.080       .  S
C365        C366   1.404       .  A
C365        C370   1.393   1_565  A
C365        H371   1.083       .  S
C366        C367   1.404       .  A
C367        C368   1.400   1_565  A
C367        H372   1.084       .  S
C368        C369   1.405       .  A
C368        H373   1.083       .  S
C369        C370   1.404       .  A
C370        H374   1.083       .  S
C375        C376   1.407       .  A
C375        C380   1.408       .  A
C375        H381   1.083       .  S
C376        C377   1.405       .  A
C377        C378   1.394       .  A
C377        H382   1.083       .  S
C378        C379   1.404       .  A
C378        H383   1.083       .  S
C379        C380   1.407       .  A
C380        H384   1.082       .  S
C385        C386   1.404       .  A
C385        C390   1.391       .  A
C385        H391   1.084       .  S
C386        C387   1.407       .  A
C387        C388   1.409       .  A
C387        H392   1.083       .  S
C388        C389   1.407       .  A
C388        H393   1.082       .  S
C389        C390   1.403       .  A
C390        H394   1.084       .  S
C395        C396   1.406       .  A
C395        C400   1.404       .  A
C395        H401   1.085       .  S
C396        C397   1.405       .  A
C397        C398   1.397       .  A
C397        H402   1.081       .  S
C398        C399   1.404       .  A
C398        H403   1.086       .  S
C399        C400   1.407       .  A
C400        H404   1.080       .  S
C405        C406   1.403       .  A
C405        C410   1.393   1_455  A
C405        H411   1.086       .  S
C406        C407   1.406       .  A
C407        C408   1.402   1_455  A
C407        H412   1.080       .  S
C408        C409   1.404       .  A
C408        H413   1.086       .  S
C409        C410   1.403       .  A
C410        H414   1.079       .  S
C415        C416   1.406       .  A
C415        C420   1.403       .  A
C415        H421   1.085       .  S
C416        C417   1.405       .  A
C417        C418   1.395       .  A
C417        H422   1.081       .  S
C418        C419   1.403       .  A
C418        H423   1.086       .  S
C419        C420   1.406       .  A
C420        H424   1.080       .  S
C425        C426   1.407       .  A
C425        C430   1.408       .  A
C425        H431   1.082       .  S
C426        C427   1.405       .  A
C427        C428   1.395       .  A
C427        H432   1.083       .  S
C428        C429   1.404       .  A
C428        H433   1.084       .  S
C429        C430   1.407       .  A
C430        H434   1.083       .  S
C435        C436   1.403       .  A
C435        C440   1.393   1_455  A
C435        H441   1.081       .  S
C436        C437   1.405       .  A
C437        C438   1.402   1_455  A
C437        H442   1.084       .  S
C438        C439   1.405       .  A
C438        H443   1.082       .  S
C439        C440   1.403       .  A
C440        H444   1.085       .  S
C445        C446   1.404       .  A
C445        C450   1.394       .  A
C445        H451   1.083       .  S
C446        C447   1.408       .  A
C447        C448   1.411       .  A
C447        H452   1.082       .  S
C448        C449   1.408       .  A
C448        H453   1.083       .  S
C449        C450   1.405       .  A
C450        H454   1.083       .  S
C455        C456   1.405       .  A
C455        C460   1.402       .  A
C455        H461   1.085       .  S
C456        C457   1.404       .  A
C457        C458   1.394       .  A
C457        H462   1.081       .  S
C458        C459   1.403       .  A
C458        H463   1.086       .  S
C459        C460   1.406       .  A
C460        H464   1.080       .  S
C465        C466   1.403       .  A
C465        C470   1.394   1_455  A
C465        H471   1.085       .  S
C466        C467   1.405       .  A
C467        C468   1.400   1_455  A
C467        H472   1.081       .  S
C468        C469   1.404       .  A
C468        H473   1.085       .  S
C469        C470   1.405       .  A
C470        H474   1.081       .  S
C475        C476   1.403       .  A
C475        C480   1.392   1_565  A
C475        H481   1.083       .  S
C476        C477   1.405       .  A
C477        C478   1.400   1_565  A
C477        H482   1.083       .  S
C478        C479   1.405       .  A
C478        H483   1.084       .  S
C479        C480   1.403       .  A
C480        H484   1.082       .  S
C485        C486   1.406       .  A
C485        C490   1.401       .  A
C485        H491   1.081       .  S
C486        C487   1.404       .  A
C487        C488   1.396       .  A
C487        H492   1.086       .  S
C488        C489   1.405       .  A
C488        H493   1.081       .  S
C489        C490   1.405       .  A
C490        H494   1.085       .  S
C495        C496   1.405       .  A
C495        C500   1.395   1_455  A
C495        H501   1.081       .  S
C496        C497   1.404       .  A
C497        C498   1.399   1_455  A
C497        H502   1.085       .  S
C498        C499   1.405       .  A
C498        H503   1.081       .  S
C499        C500   1.403       .  A
C500        H504   1.085       .  S
C505        C506   1.408       .  A
C505        C510   1.409       .  A
C505        H511   1.082       .  S
C506        C507   1.403       .  A
C507        C508   1.391       .  A
C507        H512   1.084       .  S
C508        C509   1.404       .  A
C508        H513   1.084       .  S
C509        C510   1.407       .  A
C510        H514   1.082       .  S
C515        C516   1.404       .  A
C515        C520   1.400   1_565  A
C515        H521   1.082       .  S
C516        C517   1.403       .  A
C517        C518   1.393   1_565  A
C517        H522   1.085       .  S
C518        C519   1.403       .  A
C518        H523   1.082       .  S
C519        C520   1.404       .  A
C520        H524   1.084       .  S
C525        C526   1.404       .  A
C525        C530   1.393       .  A
C525        H531   1.083       .  S
C526        C527   1.408       .  A
C527        C528   1.411       .  A
C527        H532   1.082       .  S
C528        C529   1.408       .  A
C528        H533   1.083       .  S
C529        C530   1.404       .  A
C530        H534   1.084       .  S
C535        C536   1.404       .  A
C535        C540   1.397       .  A
C535        H541   1.086       .  S
C536        C537   1.406       .  A
C537        C538   1.401       .  A
C537        H542   1.080       .  S
C538        C539   1.405       .  A
C538        H543   1.085       .  S
C539        C540   1.405       .  A
C540        H544   1.081       .  S
C545        C546   1.211       .  T
C547        C548   1.211   1_455  T
C549        C550   1.208   1_655  T
C551       C1112   1.212   1_554  T
C552       C1111   1.212       .  T
C553        C554   1.212       .  T
C555        C585   1.479       .  S
C555        C556   1.212   1_545  T
C557        C558   1.208   1_545  T
C558        C561   1.472       .  S
C559        C560   1.212   1_554  T
C561        C562   1.522       .  S
C561        C567   1.518       .  S
C562        H569   1.088       .  S
C562        C563   1.367       .  D
C563        C810   1.472       .  S
C564        C566   1.551   1_554  S
C564        H570   1.110       .  S
C565        H571   1.088       .  S
C565        C566   1.368       .  D
C566        C775   1.480       .  S
C567        H572   1.083       .  S
C567        C568   1.364       .  D
C568       C1119   1.449       .  S
C573        C579   1.521       .  S
C573        C577   1.528       .  S
C573       C1116   1.479       .  S
C574        H581   1.088       .  S
C574        C575   1.367       .  D
C575        C667   1.474       .  S
C576        C580   1.550       .  S
C576        C578   1.549       .  S
C576        H582   1.110       .  S
C577        H583   1.087       .  S
C577        C578   1.369       .  D
C578        C684   1.475       .  S
C579        H584   1.083       .  S
C579        C580   1.365       .  D
C580       C1120   1.450       .  S
C585        C591   1.522       .  S
C585        C589   1.524       .  S
C586        H593   1.088       .  S
C586        C587   1.368       .  D
C587        C758   1.473       .  S
C588        C592   1.550       .  S
C588        C590   1.551       .  S
C588        H594   1.110       .  S
C589        H595   1.088       .  S
C589        C590   1.368       .  D
C590        C723   1.474       .  S
C591        C592   1.367       .  D
C592       C1113   1.450       .  S
C597        C598   1.524   1_554  S
C597        C603   1.518       .  S
C597       C1117   1.471       .  S
C598        H605   1.088       .  S
C598        C599   1.367       .  D
C599        C600   1.552   1_556  S
C599        C836   1.476       .  S
C600        C604   1.554       .  S
C600        H606   1.110       .  S
C601        H607   1.088       .  S
C601        C602   1.367       .  D
C602        C853   1.477       .  S
C603        H608   1.082       .  S
C603        C604   1.364       .  D
C604       C1114   1.449   1_554  S
C609        C615   1.518       .  S
C609        C613   1.525       .  S
C609       C1109   1.472       .  S
C610        H617   1.088       .  S
C610        C611   1.368       .  D
C611        C849   1.476       .  S
C612        C616   1.553       .  S
C612        C614   1.553       .  S
C612        H618   1.110   1_556  S
C613        H619   1.088       .  S
C613        C614   1.368       .  D
C614        C814   1.476       .  S
C615        C616   1.363       .  D
C616       C1112   1.449       .  S
C621        C627   1.522       .  S
C621        C625   1.525       .  S
C621       C1108   1.477       .  S
C622        H629   1.088       .  S
C622        C623   1.369       .  D
C623        C771   1.477       .  S
C624        C628   1.550       .  S
C624        C626   1.550       .  S
C624        H630   1.110       .  S
C625        H631   1.088       .  S
C625        C626   1.369       .  D
C626        C788   1.473       .  S
C627        H632   1.084       .  S
C627        C628   1.366       .  D
C628       C1111   1.450       .  S
C633        C634   1.523       .  S
C633        C639   1.520       .  S
C633       C1107   1.477       .  S
C634        H641   1.088       .  S
C634        C635   1.368       .  D
C635        C636   1.551       .  S
C635        C706   1.473       .  S
C637        H643   1.087       .  S
C637        C638   1.368       .  D
C638        C671   1.472       .  S
C639        H644   1.083       .  S
C640       C1105   1.449   1_554  S
C645        C646   1.520       .  S
C645        C651   1.520       .  S
C645       C1110   1.473       .  S
C646        H653   1.088       .  S
C646        C647   1.366       .  D
C647        C648   1.554       .  S
C647        C719   1.474       .  S
C648        C652   1.552       .  S
C648        H654   1.110       .  S
C649        H655   1.088       .  S
C649        C650   1.368       .  D
C650        C736   1.475       .  S
C651        H656   1.083       .  S
C651        C652   1.366       .  D
C652       C1106   1.450       .  S
In657       O659   2.222       .  S
In657       O660   2.278       .  S
In657       O668   2.248       .  S
In657       O662   2.231       .  S
In657       O664   2.255       .  S
In657       O665   2.286       .  S
In657       O666   2.221       .  S
In657       O669   2.216       .  S
C658        O664   1.265       .  A
C658        O666   1.261       .  A
C658       C1076   1.473       .  S
O659        C667   1.258       .  A
O660        C667   1.267       .  A
C661        O668   1.265       .  A
C661        O662   1.263       .  A
C661       C1096   1.479       .  S
C663        O665   1.269       .  A
C663        O669   1.261       .  A
C663       C1086   1.486       .  S
In670       O672   2.252       .  S
In670       O673   2.226       .  S
In670       O681   2.211       .  S
In670       O675   2.280       .  S
In670       O677   2.279       .  S
In670       O678   2.250       .  S
In670       O679   2.207       .  S
In670       O682   2.223       .  S
C671        O677   1.268       .  A
C671        O679   1.258       .  A
O672        C680   1.266       .  A
O673        C680   1.263       .  A
C674        O681   1.261       .  A
C674        O675   1.268       .  A
C674       C1066   1.482       .  S
C676        O678   1.265       .  A
C676        O682   1.261       .  A
C676       C1056   1.474       .  S
C680       C1099   1.479       .  S
In683       O685   2.247       .  S
In683       O686   2.224       .  S
In683       O694   2.214       .  S
In683       O688   2.286       .  S
In683       O690   2.281       .  S
In683       O691   2.254       .  S
In683       O692   2.224       .  S
In683       O695   2.214       .  S
C684        O690   1.267       .  A
C684        O692   1.258       .  A
O685        C693   1.266       .  A
O686        C693   1.263       .  A
C687        O694   1.261       .  A
C687        O688   1.270       .  A
C687       C1089   1.486       .  S
C689        O691   1.264       .  A
C689        O695   1.260       .  A
C689       C1036   1.473       .  S
C693       C1046   1.477       .  S
In696       O698   2.206       .  S
In696       O699   2.283       .  S
In696       O707   2.250       .  S
In696       O701   2.222       .  S
In696       O703   2.248       .  S
In696       O704   2.283       .  S
In696       O705   2.225       .  S
In696       O708   2.202       .  S
C697        O703   1.265       .  A
C697        O705   1.262       .  A
C697       C1026   1.475       .  S
O698        C706   1.258       .  A
O699        C706   1.268       .  A
C700        O707   1.266       .  A
C700        O701   1.263       .  A
C700       C1049   1.478       .  S
C702        O704   1.270       .  A
C702        O708   1.260       .  A
C702       C1069   1.482       .  S
In709       O711   2.209       .  S
In709       O712   2.289       .  S
In709       O720   2.252       .  S
In709       O714   2.221       .  S
In709       O716   2.254       .  S
In709       O717   2.285       .  S
In709       O718   2.223       .  S
In709       O721   2.218       .  S
C710        O716   1.265       .  A
C710        O718   1.262       .  A
C710        C996   1.475       .  S
O711        C719   1.258       .  A
O712        C719   1.268       .  A
C713        O720   1.265       .  A
C713        O714   1.262       .  A
C713       C1016   1.477       .  S
C715        O717   1.269       .  A
C715        O721   1.261       .  A
C715       C1006   1.488       .  S
In722       O724   2.253       .  S
In722       O725   2.219       .  S
In722       O733   2.216       .  S
In722       O727   2.278       .  S
In722       O729   2.289       .  S
In722       O730   2.242       .  S
In722       O731   2.207       .  S
In722       O734   2.222       .  S
C723        O729   1.269       .  A
C723        O731   1.257       .  A
O724        C732   1.266       .  A
O725        C732   1.262       .  A
C726        O733   1.261       .  A
C726        O727   1.269       .  A
C726        C986   1.483       .  S
C728        O730   1.265       .  A
C728        O734   1.262       .  A
C728       C1079   1.472       .  S
C732       C1019   1.477       .  S
In735       O737   2.258       .  S
In735       O738   2.223       .  S
In735       O746   2.215       .  S
In735       O740   2.288       .  S
In735       O742   2.292       .  S
In735       O743   2.257       .  S
In735       O744   2.206       .  S
In735       O747   2.224       .  S
C736        O742   1.269       .  A
C736        O744   1.257       .  A
O737        C745   1.266       .  A
O738        C745   1.263       .  A
C739        O746   1.261       .  A
C739        O740   1.270       .  A
C739       C1009   1.488       .  S
C741        O743   1.265       .  A
C741        O747   1.262       .  A
C741        C966   1.476       .  S
C745        C976   1.480       .  S
In748       O750   2.210       .  S
In748       O751   2.282       .  S
In748       O759   2.253       .  S
In748       O753   2.219       .  S
In748       O755   2.251       .  S
In748       O756   2.277       .  S
In748       O757   2.220       .  S
In748       O760   2.220       .  S
C749        O755   1.265       .  A
C749        O757   1.260       .  A
C749       C1039   1.473       .  S
O750        C758   1.258       .  A
O751        C758   1.268       .  A
C752        O759   1.267       .  A
C752        O753   1.263       .  A
C752        C979   1.479       .  S
C754        O756   1.269       .  A
C754        O760   1.261       .  A
C754        C989   1.484       .  S
In761       O763   2.211       .  S
In761       O764   2.287       .  S
In761       O772   2.259       .  S
In761       O766   2.229       .  S
In761       O768   2.238       .  S
In761       O769   2.285       .  S
In761       O770   2.227       .  S
In761       O773   2.205       .  S
C762        O768   1.265       .  A
C762        O770   1.263       .  A
C762       C1059   1.473       .  S
O763        C771   1.258       .  A
O764        C771   1.269       .  A
C765        O772   1.266       .  A
C765        O766   1.262       .  A
C765        C956   1.482       .  S
C767        O769   1.270       .  A
C767        O773   1.260       .  A
C767        C946   1.482       .  S
In774       O776   2.257       .  S
In774       O777   2.227       .  S
In774       O785   2.211       .  S
In774       O779   2.280       .  S
In774       O781   2.293       .  S
In774       O782   2.250       .  S
In774       O783   2.214       .  S
In774       O786   2.216       .  S
C775        O781   1.269       .  A
C775        O783   1.259       .  A
O776        C784   1.267       .  A
O777        C784   1.264       .  A
C778        O785   1.260       .  A
C778        O779   1.270       .  A
C778        C936   1.483       .  S
C780        O782   1.267       .  A
C780        O786   1.262       .  A
C780        C926   1.474       .  S
C784        C959   1.482       .  S
In787       O789   2.253       .  S
In787       O790   2.230       .  S
In787       O798   2.203       .  S
In787       O792   2.279       .  S
In787       O794   2.276       .  S
In787       O795   2.251       .  S
In787       O796   2.216       .  S
In787       O799   2.222       .  S
C788        O794   1.267       .  A
C788        O796   1.259       .  A
O789        C797   1.266       .  A
O790        C797   1.263       .  A
C791        O798   1.261       .  A
C791        O792   1.270       .  A
C791        C949   1.480       .  S
C793        O795   1.266       .  A
C793        O799   1.261       .  A
C793       C1029   1.475       .  S
C797        C916   1.480       .  S
In800       O802   2.218       .  S
In800       O803   2.279       .  S
In800       O811   2.252       .  S
In800       O805   2.221       .  S
In800       O807   2.260       .  S
In800       O808   2.273       .  S
In800       O809   2.224       .  S
In800       O812   2.213       .  S
C801        O807   1.264       .  A
C801        O809   1.260       .  A
C801        C906   1.476       .  S
O802        C810   1.258       .  A
O803        C810   1.266       .  A
C804        O811   1.266       .  A
C804        O805   1.263       .  A
C804        C919   1.478       .  S
C806        O808   1.269       .  A
C806        O812   1.261       .  A
C806        C939   1.481       .  S
In813       O815   2.251       .  S
In813       O816   2.220       .  S
In813       O824   2.215       .  S
In813       O818   2.280       .  S
In813       O820   2.284       .  S
In813       O821   2.255       .  S
In813       O822   2.220       .  S
In813       O825   2.219       .  S
C814        O820   1.267       .  A
C814        O822   1.258       .  A
O815        C823   1.266       .  A
O816        C823   1.262       .  A
C817        O824   1.261       .  A
C817        O818   1.269       .  A
C817        C886   1.484       .  S
C819        O821   1.264       .  A
C819        O825   1.261       .  A
C819        C999   1.474       .  S
C823        C896   1.477       .  S
In826       O828   2.210       .  S
In826       O829   2.288       .  S
In826       O837   2.239       .  S
In826       O831   2.227       .  S
In826       O833   2.250       .  S
In826       O834   2.282       .  S
In826       O835   2.221       .  S
In826       O838   2.210       .  S
C827        O833   1.266       .  A
C827        O835   1.262       .  A
C827        C929   1.475       .  S
O828        C836   1.259       .  A
O829        C836   1.269       .  A
C830        O837   1.265       .  A
C830        O831   1.264       .  A
C830        C899   1.475       .  S
C832        O834   1.270       .  A
C832        O838   1.260       .  A
C832        C876   1.484       .  S
In839       O841   2.213       .  S
In839       O842   2.287       .  S
In839       O850   2.258       .  S
In839       O844   2.221       .  S
In839       O846   2.251       .  S
In839       O847   2.282       .  S
In839       O848   2.218       .  S
In839       O851   2.220       .  S
C840        O846   1.266       .  A
C840        O848   1.262       .  A
C840        C969   1.474       .  S
O841        C849   1.258       .  A
O842        C849   1.269       .  A
C843        O850   1.266       .  A
C843        O844   1.262       .  A
C843        C866   1.479       .  S
C845        O847   1.270       .  A
C845        O851   1.261       .  A
C845        C889   1.486       .  S
In852       O854   2.255       .  S
In852       O855   2.231       .  S
In852       O863   2.226       .  S
In852       O857   2.280       .  S
In852       O859   2.293       .  S
In852       O860   2.258       .  S
In852       O861   2.213       .  S
In852       O864   2.222       .  S
C853        O859   1.267       .  A
C853        O861   1.258       .  A
O854        C862   1.265       .  A
O855        C862   1.263       .  A
C856        O863   1.261       .  A
C856        O857   1.268       .  A
C856        C879   1.485       .  S
C858        O860   1.265       .  A
C858        O864   1.261       .  A
C858        C909   1.476       .  S
C862        C869   1.479       .  S
C865        C866   1.405       .  A
C865        C870   1.395       .  A
C865        H871   1.081       .  S
C866        C867   1.405       .  A
C867        C868   1.403       .  A
C867        H872   1.085       .  S
C868        C869   1.407       .  A
C868        H873   1.080       .  S
C869        C870   1.403       .  A
C870        H874   1.086       .  S
C875        C876   1.405       .  A
C875        C880   1.395       .  A
C875        H881   1.084       .  S
C876        C877   1.407       .  A
C877        C878   1.409       .  A
C877        H882   1.082       .  S
C878        C879   1.408       .  A
C878        H883   1.082       .  S
C879        C880   1.404       .  A
C880        H884   1.084       .  S
C885        C886   1.404       .  A
C885        C890   1.395       .  A
C885        H891   1.083       .  S
C886        C887   1.407       .  A
C887        C888   1.409       .  A
C887        H892   1.083       .  S
C888        C889   1.408       .  A
C888        H893   1.083       .  S
C889        C890   1.405       .  A
C890        H894   1.083       .  S
C895        C896   1.404       .  A
C895        C900   1.400       .  A
C895        H901   1.085       .  S
C896        C897   1.405       .  A
C897        C898   1.396       .  A
C897        H902   1.081       .  S
C898        C899   1.403       .  A
C898        H903   1.086       .  S
C899        C900   1.405       .  A
C900        H904   1.081       .  S
C905        C906   1.404       .  A
C905        C910   1.393   1_565  A
C905        H911   1.082       .  S
C906        C907   1.405       .  A
C907        C908   1.402   1_565  A
C907        H912   1.084       .  S
C908        C909   1.406       .  A
C908        H913   1.082       .  S
C909        C910   1.403       .  A
C910        H914   1.084       .  S
C915        C916   1.406       .  A
C915        C920   1.402       .  A
C915        H921   1.085       .  S
C916        C917   1.405       .  A
C917        C918   1.396       .  A
C917        H922   1.081       .  S
C918        C919   1.404       .  A
C918        H923   1.086       .  S
C919        C920   1.406       .  A
C920        H924   1.080       .  S
C925        C926   1.404       .  A
C925        C930   1.393   1_565  A
C925        H931   1.083       .  S
C926        C927   1.404       .  A
C927        C928   1.400   1_565  A
C927        H932   1.084       .  S
C928        C929   1.405       .  A
C928        H933   1.083       .  S
C929        C930   1.404       .  A
C930        H934   1.083       .  S
C935        C936   1.407       .  A
C935        C940   1.408       .  A
C935        H941   1.083       .  S
C936        C937   1.405       .  A
C937        C938   1.394       .  A
C937        H942   1.083       .  S
C938        C939   1.404       .  A
C938        H943   1.083       .  S
C939        C940   1.407       .  A
C940        H944   1.082       .  S
C945        C946   1.404       .  A
C945        C950   1.391       .  A
C945        H951   1.084       .  S
C946        C947   1.407       .  A
C947        C948   1.409       .  A
C947        H952   1.083       .  S
C948        C949   1.407       .  A
C948        H953   1.082       .  S
C949        C950   1.403       .  A
C950        H954   1.084       .  S
C955        C956   1.406       .  A
C955        C960   1.404       .  A
C955        H961   1.085       .  S
C956        C957   1.405       .  A
C957        C958   1.397       .  A
C957        H962   1.081       .  S
C958        C959   1.404       .  A
C958        H963   1.086       .  S
C959        C960   1.407       .  A
C960        H964   1.080       .  S
C965        C966   1.403       .  A
C965        C970   1.393   1_455  A
C965        H971   1.086       .  S
C966        C967   1.406       .  A
C967        C968   1.402   1_455  A
C967        H972   1.080       .  S
C968        C969   1.404       .  A
C968        H973   1.086       .  S
C969        C970   1.403       .  A
C970        H974   1.079       .  S
C975        C976   1.406       .  A
C975        C980   1.403       .  A
C975        H981   1.085       .  S
C976        C977   1.405       .  A
C977        C978   1.395       .  A
C977        H982   1.081       .  S
C978        C979   1.403       .  A
C978        H983   1.086       .  S
C979        C980   1.406       .  A
C980        H984   1.080       .  S
C985        C986   1.407       .  A
C985        C990   1.408       .  A
C985        H991   1.082       .  S
C986        C987   1.405       .  A
C987        C988   1.395       .  A
C987        H992   1.083       .  S
C988        C989   1.404       .  A
C988        H993   1.084       .  S
C989        C990   1.407       .  A
C990        H994   1.083       .  S
C995        C996   1.403       .  A
C995       C1000   1.393   1_455  A
C995       H1001   1.081       .  S
C996        C997   1.405       .  A
C997        C998   1.402   1_455  A
C997       H1002   1.084       .  S
C998        C999   1.405       .  A
C998       H1003   1.082       .  S
C999       C1000   1.403       .  A
C1000      H1004   1.085       .  S
C1005      C1006   1.404       .  A
C1005      C1010   1.394       .  A
C1005      H1011   1.083       .  S
C1006      C1007   1.408       .  A
C1007      C1008   1.411       .  A
C1007      H1012   1.082       .  S
C1008      C1009   1.408       .  A
C1008      H1013   1.083       .  S
C1009      C1010   1.405       .  A
C1010      H1014   1.083       .  S
C1015      C1016   1.405       .  A
C1015      C1020   1.402       .  A
C1015      H1021   1.085       .  S
C1016      C1017   1.404       .  A
C1017      C1018   1.394       .  A
C1017      H1022   1.081       .  S
C1018      C1019   1.403       .  A
C1018      H1023   1.086       .  S
C1019      C1020   1.406       .  A
C1020      H1024   1.080       .  S
C1025      C1026   1.403       .  A
C1025      C1030   1.394   1_455  A
C1025      H1031   1.085       .  S
C1026      C1027   1.405       .  A
C1027      C1028   1.400   1_455  A
C1027      H1032   1.081       .  S
C1028      C1029   1.404       .  A
C1028      H1033   1.085       .  S
C1029      C1030   1.405       .  A
C1030      H1034   1.081       .  S
C1035      C1036   1.403       .  A
C1035      C1040   1.392   1_565  A
C1035      H1041   1.083       .  S
C1036      C1037   1.405       .  A
C1037      C1038   1.400   1_565  A
C1037      H1042   1.083       .  S
C1038      C1039   1.405       .  A
C1038      H1043   1.084       .  S
C1039      C1040   1.403       .  A
C1040      H1044   1.082       .  S
C1045      C1046   1.406       .  A
C1045      C1050   1.401       .  A
C1045      H1051   1.081       .  S
C1046      C1047   1.404       .  A
C1047      C1048   1.396       .  A
C1047      H1052   1.086       .  S
C1048      C1049   1.405       .  A
C1048      H1053   1.081       .  S
C1049      C1050   1.405       .  A
C1050      H1054   1.085       .  S
C1055      C1056   1.405       .  A
C1055      C1060   1.395   1_455  A
C1055      H1061   1.081       .  S
C1056      C1057   1.404       .  A
C1057      C1058   1.399   1_455  A
C1057      H1062   1.085       .  S
C1058      C1059   1.405       .  A
C1058      H1063   1.081       .  S
C1059      C1060   1.403       .  A
C1060      H1064   1.085       .  S
C1065      C1066   1.408       .  A
C1065      C1070   1.409       .  A
C1065      H1071   1.082       .  S
C1066      C1067   1.403       .  A
C1067      C1068   1.391       .  A
C1067      H1072   1.084       .  S
C1068      C1069   1.404       .  A
C1068      H1073   1.084       .  S
C1069      C1070   1.407       .  A
C1070      H1074   1.082       .  S
C1075      C1076   1.404       .  A
C1075      C1080   1.400   1_565  A
C1075      H1081   1.082       .  S
C1076      C1077   1.403       .  A
C1077      C1078   1.393   1_565  A
C1077      H1082   1.085       .  S
C1078      C1079   1.403       .  A
C1078      H1083   1.082       .  S
C1079      C1080   1.404       .  A
C1080      H1084   1.084       .  S
C1085      C1086   1.404       .  A
C1085      C1090   1.393       .  A
C1085      H1091   1.083       .  S
C1086      C1087   1.408       .  A
C1087      C1088   1.411       .  A
C1087      H1092   1.082       .  S
C1088      C1089   1.408       .  A
C1088      H1093   1.083       .  S
C1089      C1090   1.404       .  A
C1090      H1094   1.083       .  S
C1095      C1096   1.404       .  A
C1095      C1100   1.397       .  A
C1095      H1101   1.086       .  S
C1096      C1097   1.406       .  A
C1097      C1098   1.401       .  A
C1097      H1102   1.080       .  S
C1098      C1099   1.405       .  A
C1098      H1103   1.085       .  S
C1099      C1100   1.405       .  A
C1100      H1104   1.081       .  S
C1105      C1106   1.211       .  T
C1107      C1108   1.211   1_455  T
C1109      C1110   1.208   1_655  T
C1113      C1114   1.212       .  T
C1115      C1116   1.212   1_545  T
C1117      C1118   1.208   1_545  T
C1119      C1120   1.212       .  T
