geometry optimzed in LAMMPS
_audit_creation_date              2020-11-30 
_audit_creation_method            'lammps2cif' 
_symmetry_space_group_name_H-M    'P1' 
_symmetry_Int_Tables_number       1 
_symmetry_cell_setting            triclinic 
loop_ 
_symmetry_equiv_pos_as_xyz 
  x,y,z 
_cell_length_a                    37.31714612 
_cell_length_b                    37.89670366444233 
_cell_length_c                    37.64583022926535 
_cell_angle_alpha                 89.78870000057047 
_cell_angle_beta                  90.01224250414174 
_cell_angle_gamma                 119.66910704628788 
loop_ 
_atom_site_label 
_atom_site_type_symbol 
_atom_site_fract_x 
_atom_site_fract_y 
_atom_site_fract_z 
_atom_site_charge 
O1          O  0.48423836  0.44637501  0.04035939    -0.69700
O2          O  0.55405416  0.51349476  0.46588896    -0.69900
O3          O  0.55527254  0.51665260  0.03736760    -0.69800
O4          O  0.48263561  0.44256836  0.46859651    -0.69800
O5          O  0.44619804  0.47278114  0.47051698    -0.69700
O6          O  0.52401891  0.55192268  0.03374466    -0.69700
O7          O  0.51698311  0.54301950  0.46244089    -0.69700
O8          O  0.45338329  0.48208977  0.04174039    -0.69900
V9          V  0.51821893  0.48068046  0.00305209     1.35200
V10         V  0.48589174  0.51153871  0.50190912     1.35200
C11         C  0.45791434  0.45373157  0.05464182     0.79600
C12         C  0.54689990  0.53944395  0.45113176     0.79600
C13         C  0.55218952  0.54686352  0.04726848     0.79500
C14         C  0.45153469  0.44470935  0.45820021     0.79400
O15         O  0.03245082  0.55485238  0.46465768    -0.69700
O16         O  0.03260217  0.48191524  0.03475059    -0.69900
O17         O  0.03400713  0.48468160  0.46328311    -0.69800
O18         O  0.03120591  0.55192248  0.03613863    -0.69800
O19         O  0.96450808  0.52180299  0.03214807    -0.69700
O20         O  0.96729643  0.44804887  0.46558860    -0.69700
O21         O  0.96576441  0.45173264  0.03686604    -0.69700
O22         O  0.96589240  0.51836767  0.46081170    -0.69900
V23         V  0.03123677  0.51785944  0.49966780     1.35200
V24         V  0.96725469  0.48552006  0.99872338     1.35200
C25         C  0.99918603  0.54854925  0.45016279     0.79600
C26         C  0.99913093  0.45518506  0.04859501     0.79600
C27         C  0.00121475  0.45424796  0.45250717     0.79500
C28         C  0.99744801  0.54863734  0.04648507     0.79400
O29         O  0.54989496  0.02719014  0.03618114    -0.69700
O30         O  0.48367450  0.03667966  0.46441419    -0.69900
O31         O  0.47807960  0.02766194  0.03507719    -0.69800
O32         O  0.55589844  0.03650899  0.46544112    -0.69800
O33         O  0.52257848  0.97103606  0.45970484    -0.69700
O34         O  0.44533180  0.96199565  0.03041880    -0.69700
O35         O  0.45046865  0.97107679  0.45935592    -0.69700
O36         O  0.51725197  0.96167383  0.03072414    -0.69900
V37         V  0.51575757  0.03001131  0.00011743     1.35200
V38         V  0.48507749  0.96825989  0.49503681     1.35200
C39         C  0.54525641  0.99310803  0.04567441     0.79600
C40         C  0.45517557  0.00522152  0.44992897     0.79600
C41         C  0.44846589  0.99362050  0.04452382     0.79500
C42         C  0.55257731  0.00506489  0.45074249     0.79400
C43         C  0.00179145  0.73121563  0.24751558    -0.00400
C44         C  0.99644400  0.27257979  0.25056341    -0.00400
C45         C  0.27138474  0.27415048  0.25423481    -0.00400
C46         C  0.27498079  0.00272991  0.24760932    -0.00400
C47         C  0.72703602  0.99820696  0.24764419    -0.00400
C48         C  0.72569263  0.72608811  0.25094366    -0.00400
C49         C  0.71079194  0.89172698  0.27665643     0.14800
C50         C  0.73557285  0.88614652  0.25197381     0.01700
C51         C  0.75685179  0.91619490  0.22626838     0.16700
C52         C  0.75343441  0.95125326  0.22519441     0.26100
C53         C  0.72988161  0.95848499  0.25083738    -0.40200
C54         C  0.70716526  0.92674888  0.27583954     0.33200
C55         C  0.73579521  0.84715763  0.25087788     0.01800
F56         F  0.78100231  0.91151807  0.20190215    -0.12500
F57         F  0.67859975  0.92706270  0.29785038    -0.13100
C58         C  0.72237402  0.82321280  0.22030760     0.16700
C59         C  0.72022887  0.78544215  0.21926630     0.26100
C60         C  0.72935198  0.76904454  0.24988972    -0.40200
C61         C  0.74623578  0.79529378  0.27952777     0.33100
C62         C  0.74857066  0.83333738  0.28022798     0.14500
F63         F  0.71089761  0.83633578  0.19110888    -0.12500
F64         F  0.75883465  0.78326817  0.30869416    -0.13000
F65         F  0.71155569  0.76686051  0.18719920    -0.15300
F66         F  0.76335326  0.85674954  0.30968139    -0.13900
F67         F  0.68795787  0.86192866  0.30047061    -0.13900
F68         F  0.77411953  0.97877663  0.19916026    -0.15300
C69         C  0.23433917  0.15872775  0.26517916     0.14800
C70         C  0.26340816  0.15360326  0.24522253     0.01700
C71         C  0.29278091  0.18722785  0.22566187     0.16700
C72         C  0.29124344  0.22315612  0.22399211     0.26100
C73         C  0.26740895  0.23120328  0.24876767    -0.40200
C74         C  0.23805500  0.19722583  0.26886417     0.33200
C75         C  0.26381338  0.11410095  0.24480345     0.01800
F76         F  0.32415683  0.18627358  0.20828463    -0.12500
F77         F  0.21284751  0.20107411  0.29259765    -0.13100
C78         C  0.27579664  0.10132028  0.21413547     0.16700
C79         C  0.28436322  0.06937707  0.21556857     0.26100
C80         C  0.27170906  0.04241388  0.24513968    -0.40200
C81         C  0.25572998  0.05343838  0.27479662     0.33100
C82         C  0.25494229  0.08991596  0.27552593     0.14800
F83         F  0.27962369  0.11977138  0.18226283    -0.12500
F84         F  0.24149366  0.02921470  0.30394635    -0.13000
F85         F  0.30652071  0.06714957  0.18813612    -0.15300
F86         F  0.24660178  0.10173568  0.30696737    -0.13900
F87         F  0.20200989  0.12665128  0.28123888    -0.13900
F88         F  0.31252397  0.24842182  0.19687899    -0.15300
C89         C  0.16762951  0.27094673  0.27837323     0.14800
C90         C  0.14409649  0.25444894  0.24764298     0.01700
C91         C  0.16057222  0.24158408  0.22029388     0.16700
C92         C  0.20075265  0.24747054  0.22288416     0.26100
C93         C  0.22605341  0.26678476  0.25289858    -0.40200
C94         C  0.20672158  0.27513265  0.28181603     0.33200
C95         C  0.10309145  0.25209331  0.24463989     0.01800
F96         F  0.13776995  0.22314997  0.19102315    -0.12500
F97         F  0.22359305  0.28517957  0.31465021    -0.13100
C98         C  0.09392540  0.26952538  0.21561984     0.16700
C99         C  0.05869334  0.27372361  0.21580988     0.26100
C100        C  0.03326540  0.26393842  0.24667005    -0.40200
C101        C  0.04036908  0.24200052  0.27379588     0.33100
C102        C  0.07440971  0.23593811  0.27257180     0.14800
F103        F  0.11976338  0.28380023  0.18723936    -0.12500
F104        F  0.01549400  0.22813417  0.30275569    -0.13000
F105        F  0.04950699  0.28602627  0.18495674    -0.15300
F106        F  0.08008782  0.21525534  0.29948861    -0.13900
F107        F  0.15287734  0.28361830  0.30555006    -0.13900
F108        F  0.21557406  0.23543762  0.19531094    -0.15300
C109        C  0.84509194  0.07500882  0.25977101     0.14800
C110        C  0.84715383  0.11161900  0.25016786     0.01700
C111        C  0.81105418  0.11180268  0.24079434     0.16700
C112        C  0.77325955  0.07572779  0.24034146     0.26100
C113        C  0.77043000  0.03758938  0.24777860    -0.40200
C114        C  0.80741354  0.03854944  0.25917169     0.33200
C115        C  0.88653782  0.15029777  0.25165048     0.01800
F116        F  0.81238927  0.14728568  0.23226496    -0.12500
F117        F  0.80763965  0.00526892  0.27222120    -0.13100
C118        C  0.91251385  0.16445890  0.22201815     0.16700
C119        C  0.94793344  0.20284598  0.22241806     0.26100
C120        C  0.95756974  0.22906601  0.25214561    -0.40200
C121        C  0.93281422  0.21213516  0.28318772     0.33100
C122        C  0.89745188  0.17379123  0.28243691     0.14800
F123        F  0.90304268  0.14135283  0.19230975    -0.12500
F124        F  0.94327591  0.23087067  0.31517681    -0.13000
F125        F  0.97175719  0.21528129  0.19276016    -0.15300
F126        F  0.87381366  0.15931277  0.31212819    -0.13900
F127        F  0.87958204  0.07474067  0.27087929    -0.13900
F128        F  0.73935881  0.07828236  0.23168397    -0.15300
C129        C  0.10256031  0.82834698  0.27773608     0.14800
C130        C  0.11379919  0.85196944  0.24678495     0.01700
C131        C  0.08656701  0.83891731  0.21789884     0.16700
C132        C  0.04995003  0.80141067  0.21917304     0.26100
C133        C  0.04062951  0.77471581  0.24869008    -0.40200
C134        C  0.06628252  0.79084896  0.27915326     0.33200
C135        C  0.15402650  0.89016580  0.24520126     0.01800
F136        F  0.09617516  0.86175081  0.18783560    -0.12500
F137        F  0.05594049  0.77206506  0.31125954    -0.13100
C138        C  0.19073911  0.88916200  0.24991625     0.16700
C139        C  0.22870056  0.92506418  0.25062055     0.26100
C140        C  0.23139102  0.96369591  0.24737114    -0.40200
C141        C  0.19383899  0.96383002  0.24043179     0.33100
C142        C  0.15595346  0.92763824  0.23997497     0.14800
F143        F  0.18985734  0.85308779  0.25371837    -0.12500
F144        F  0.19282179  0.99813953  0.23209382    -0.13000
F145        F  0.26307536  0.92196003  0.25548317    -0.15300
F146        F  0.12084410  0.92931878  0.23459259    -0.13900
F147        F  0.12661114  0.84211863  0.30716389    -0.13900
F148        F  0.02497167  0.78993610  0.19029302    -0.15300
C149        C  0.92266531  0.76415238  0.27576202     0.14800
C150        C  0.89367978  0.74930479  0.24816593     0.01700
C151        C  0.90243390  0.73348642  0.21787192     0.16700
C152        C  0.93817829  0.73040256  0.21596593     0.26100
C153        C  0.96469292  0.73958311  0.24588863    -0.40200
C154        C  0.95768864  0.75964534  0.27462091     0.33200
C155        C  0.85352785  0.74845472  0.25141946     0.01800
F156        F  0.87569885  0.71983024  0.19014190    -0.12500
F157        F  0.98346042  0.77273772  0.30293762    -0.13100
C158        C  0.83953153  0.76419803  0.22441726     0.16700
C159        C  0.79936385  0.75804395  0.22518767     0.26100
C160        C  0.77158834  0.73576862  0.25314792    -0.40200
C161        C  0.78851988  0.72549827  0.28268177     0.33100
C162        C  0.82799038  0.72999877  0.28093801     0.14800
F163        F  0.86453983  0.78491970  0.19671509    -0.12500
F164        F  0.76823793  0.71228354  0.31403203    -0.13000
F165        F  0.78687760  0.77181043  0.19715829    -0.15300
F166        F  0.84077601  0.71512383  0.30799185    -0.13900
F167        F  0.91668939  0.78243508  0.30431575    -0.13900
F168        F  0.94670556  0.71970674  0.18407308    -0.15300
C169        C  0.59986003  0.95213587  0.10418665     0.14800
C170        C  0.62426299  0.98583423  0.12568891     0.01700
C171        C  0.62201393  0.02149169  0.12128625     0.16700
C172        C  0.59639050  0.02381293  0.09541632     0.26100
C173        C  0.57206218  0.99026763  0.07346627    -0.40200
C174        C  0.57396474  0.95426309  0.07830933     0.33200
C175        C  0.65176028  0.98419624  0.15325849     0.01800
F176        F  0.64414893  0.05395745  0.14266655    -0.12500
F177        F  0.55140338  0.92127949  0.05761564    -0.13100
C178        C  0.69427195  0.01147058  0.15209045     0.16700
C179        C  0.71965459  0.01440472  0.18061020     0.26100
C180        C  0.70252695  0.99152816  0.21223091    -0.40200
C181        C  0.66056637  0.96013699  0.21064216     0.33100
C182        C  0.63546839  0.95719378  0.18192889     0.14800
F183        F  0.71124229  0.03570463  0.12320727    -0.12500
F184        F  0.64254669  0.93456726  0.23850302    -0.13000
F185        F  0.76081705  0.03916571  0.17635000    -0.15300
F186        F  0.59456248  0.92966046  0.18331044    -0.13900
F187        F  0.60167564  0.91739696  0.10783636    -0.13900
F188        F  0.59503583  0.05884205  0.09234107    -0.15300
C189        C  0.65196714  0.01861774  0.30527593     0.14800
C190        C  0.66309285  0.01361843  0.33953572     0.01700
C191        C  0.69716738  0.00813400  0.34430231     0.16700
C192        C  0.71857474  0.00540399  0.31489255     0.26100
C193        C  0.70457953  0.00516375  0.27971015    -0.40200
C194        C  0.67261814  0.01520732  0.27574679     0.33200
C195        C  0.63764580  0.01226218  0.36999275     0.01800
F196        F  0.70929322  0.00472853  0.37753685    -0.12500
F197        F  0.66186276  0.02374865  0.24379012    -0.13100
C198        C  0.60977300  0.97473503  0.38521285     0.16700
C199        C  0.58248569  0.97241210  0.41171401     0.26100
C200        C  0.58280240  0.00782356  0.42367443    -0.40200
C201        C  0.61191694  0.04566194  0.40902739     0.33100
C202        C  0.63879669  0.04772440  0.38214817     0.14800
F203        F  0.60811352  0.94009899  0.37350858    -0.12500
F204        F  0.61387790  0.08064740  0.42004016    -0.13000
F205        F  0.55562515  0.93535525  0.42540211    -0.15300
F206        F  0.66561496  0.08427800  0.36758080    -0.13900
F207        F  0.62042004  0.02632295  0.30033726    -0.13900
F208        F  0.75147152  0.00018891  0.32102963    -0.15300
C209        C  0.38116149  0.97917397  0.37257762     0.14800
C210        C  0.37592469  0.01337794  0.37077002     0.01700
C211        C  0.39662767  0.04497043  0.39525550     0.16700
C212        C  0.42233807  0.04239220  0.42111297     0.26100
C213        C  0.42790555  0.00818548  0.42275298    -0.40200
C214        C  0.40677732  0.97652769  0.39826712     0.33200
C215        C  0.34862187  0.01527776  0.34312023     0.01800
F216        F  0.39121804  0.07785749  0.39460732    -0.12500
F217        F  0.41148118  0.94322168  0.39863673    -0.13100
C218        C  0.30675849  0.98592151  0.34260866     0.16700
C219        C  0.28199629  0.98271884  0.31357754     0.26100
C220        C  0.29909712  0.00804321  0.28314462    -0.40200
C221        C  0.33995695  0.04127404  0.28654367     0.33100
C222        C  0.36459183  0.04419095  0.31574351     0.14800
F223        F  0.28974376  0.96001002  0.37048652    -0.12500
F224        F  0.35732023  0.06894604  0.25990440    -0.13000
F225        F  0.24111099  0.95599937  0.31672393    -0.15300
F226        F  0.40479424  0.07380315  0.31617126    -0.13900
F227        F  0.36187831  0.94848039  0.34889661    -0.13900
F228        F  0.44085058  0.07285682  0.44510680    -0.15300
C229        C  0.35358121  0.98790379  0.18922065     0.14800
C230        C  0.33890739  0.98750372  0.15507425     0.01700
C231        C  0.30180699  0.98774079  0.15082895     0.16700
C232        C  0.28081596  0.99072310  0.18050688     0.26100
C233        C  0.29781484  0.99625865  0.21528199    -0.40200
C234        C  0.33289070  0.99076975  0.21890679     0.33200
C235        C  0.36308466  0.98721065  0.12421252     0.01800
F236        F  0.28599477  0.98529119  0.11786133    -0.12500
F237        F  0.34621666  0.98480510  0.25064915    -0.13100
C238        C  0.36846674  0.95362732  0.11800276     0.16700
C239        C  0.39571790  0.95537605  0.09168219     0.26100
C240        C  0.41826605  0.99096054  0.07131437    -0.40200
C241        C  0.41202618  0.02424410  0.07711756     0.33100
C242        C  0.38456624  0.02228788  0.10331421     0.14800
F243        F  0.34804133  0.91950460  0.13811686    -0.12500
F244        F  0.43260945  0.05879755  0.05756060    -0.13000
F245        F  0.40128862  0.92287060  0.08721335    -0.15300
F246        F  0.38022170  0.05528260  0.10933277    -0.13900
F247        F  0.38834187  0.98536148  0.19392212    -0.13900
F248        F  0.24484768  0.99065211  0.17487607    -0.15300
C249        C  0.96541592  0.61020571  0.10478590     0.14800
C250        C  0.99738205  0.62615742  0.13003308     0.01700
C251        C  0.02866729  0.61584238  0.12788539     0.16700
C252        C  0.02864364  0.59091818  0.10064693     0.26100
C253        C  0.99690218  0.57508713  0.07517261    -0.40200
C254        C  0.96499691  0.58463855  0.07773358     0.33200
C255        C  0.99837971  0.65345182  0.15873172     0.01800
F256        F  0.05898101  0.62930356  0.15270017    -0.12500
F257        F  0.93398719  0.57014989  0.05355192    -0.13100
C258        C  0.96531358  0.64071051  0.18243695     0.16700
C259        C  0.96702874  0.66577626  0.21030391     0.26100
C260        C  0.00183917  0.70508798  0.21531001    -0.40200
C261        C  0.03607395  0.71627672  0.19221579     0.33100
C262        C  0.03359776  0.69144172  0.16384867     0.14800
F263        F  0.93151853  0.60333807  0.17921314    -0.12500
F264        F  0.07342900  0.74942261  0.19787293    -0.13000
F265        F  0.93384491  0.65166607  0.23221731    -0.15300
F266        F  0.06637275  0.70441058  0.14154042    -0.13900
F267        F  0.93508826  0.62011027  0.10586530    -0.13900
F268        F  0.05926018  0.58141163  0.09982805    -0.15300
C269        C  0.03307525  0.67206641  0.31325114     0.14800
C270        C  0.99973399  0.65382194  0.33692434     0.01700
C271        C  0.96609053  0.66016760  0.33171141     0.16700
C272        C  0.96547972  0.68396453  0.30337441     0.26100
C273        C  0.00000887  0.70452195  0.28019993    -0.40200
C274        C  0.03326936  0.69678887  0.28550428     0.33200
C275        C  0.99945264  0.62704173  0.36621545     0.01800
F276        F  0.93316898  0.64282960  0.35402966    -0.12500
F277        F  0.06672748  0.71373661  0.26380694    -0.13100
C278        C  0.03259517  0.64087329  0.39021632     0.16700
C279        C  0.03265539  0.61541040  0.41729867     0.26100
C280        C  0.99922039  0.57565909  0.42140688    -0.40200
C281        C  0.96590439  0.56199579  0.39753769     0.33100
C282        C  0.96624772  0.58722152  0.37008214     0.14800
F283        F  0.06474416  0.67939805  0.38782616    -0.12500
F284        F  0.93332410  0.52373897  0.40008252    -0.13000
F285        F  0.06518774  0.63007687  0.43992769    -0.15300
F286        F  0.93450841  0.57223044  0.34660614    -0.13900
F287        F  0.06534602  0.66516452  0.31637488    -0.13900
F288        F  0.92954152  0.68385086  0.29792296    -0.15300
C289        C  0.97287518  0.36011562  0.39754946     0.14800
C290        C  0.00383082  0.37542125  0.37131929     0.01700
C291        C  0.03470404  0.41648736  0.37267011     0.16700
C292        C  0.03427415  0.44190036  0.39942065     0.26100
C293        C  0.00259351  0.42687947  0.42509659    -0.40200
C294        C  0.97211396  0.38559883  0.42405278     0.33200
C295        C  0.00262062  0.34901821  0.34164809     0.01800
F296        F  0.06445531  0.43240500  0.34727542    -0.12500
F297        F  0.94191085  0.36967776  0.44905889    -0.13100
C298        C  0.96840059  0.33124119  0.31908653     0.16700
C299        C  0.96691280  0.30675855  0.29083058     0.26100
C300        C  0.99961530  0.29855990  0.28405702    -0.40200
C301        C  0.03490510  0.31829351  0.30645297     0.33100
C302        C  0.03584235  0.34245716  0.33501823     0.14800
F303        F  0.93651512  0.33844156  0.32388312    -0.12500
F304        F  0.07000889  0.31711500  0.30004147    -0.13000
F305        F  0.93272609  0.29047203  0.27009903    -0.15300
F306        F  0.06973352  0.35994589  0.35613436    -0.13900
F307        F  0.94339814  0.32030050  0.39754981    -0.13900
F308        F  0.06402382  0.48162177  0.39935145    -0.15300
C309        C  0.02993742  0.39379390  0.10865773     0.14800
C310        C  0.99845409  0.37905096  0.13442376     0.01700
C311        C  0.96760212  0.38999081  0.13201531     0.16700
C312        C  0.96763607  0.41438102  0.10398910     0.26100
C313        C  0.99896759  0.42897169  0.07804706    -0.40200
C314        C  0.03032726  0.41869128  0.08085488     0.33200
C315        C  0.99743410  0.35198287  0.16360343     0.01800
F316        F  0.93780802  0.37769643  0.15730768    -0.12500
F317        F  0.06077740  0.43179703  0.05611821    -0.13100
C318        C  0.03093550  0.36448962  0.18672797     0.16700
C319        C  0.02989745  0.33898693  0.21413805     0.26100
C320        C  0.99533608  0.29948400  0.21926214    -0.40200
C321        C  0.96051248  0.28867460  0.19708331     0.33100
C322        C  0.96228997  0.31396681  0.16913632     0.14800
F323        F  0.06467154  0.40189363  0.18317015    -0.12500
F324        F  0.92342691  0.25522845  0.20313120    -0.13000
F325        F  0.06359036  0.35273847  0.23531836    -0.15300
F326        F  0.92912711  0.30120492  0.14740840    -0.13900
F327        F  0.05984996  0.38332702  0.10995412    -0.13900
F328        F  0.93758420  0.42466161  0.10284970    -0.15300
C329        C  0.62532899  0.58714114  0.12535865     0.14800
C330        C  0.63087997  0.62641486  0.12909544     0.01700
C331        C  0.61113376  0.63983256  0.10519666     0.16700
C332        C  0.58557811  0.61409575  0.07851251     0.26100
C333        C  0.58013946  0.57479161  0.07468090    -0.40200
C334        C  0.60062482  0.56176073  0.09823049     0.33200
C335        C  0.65580545  0.65251605  0.15885889     0.01800
F336        F  0.61669447  0.67796812  0.10763154    -0.12500
F337        F  0.59550189  0.52377514  0.09602240    -0.13100
C338        C  0.69601434  0.65987150  0.16477059     0.16700
C339        C  0.71853669  0.68202356  0.19428365     0.26100
C340        C  0.70244549  0.70020991  0.21771764    -0.40200
C341        C  0.66116194  0.69130421  0.21168106     0.33100
C342        C  0.63847766  0.66806651  0.18279270     0.14800
F343        F  0.71350789  0.64494292  0.14208309    -0.12500
F344        F  0.64278098  0.70606953  0.23348440    -0.13000
F345        F  0.75459201  0.68261126  0.20046932    -0.15300
F346        F  0.59897196  0.66000328  0.17870235    -0.13900
F347        F  0.64260714  0.57268625  0.14886079    -0.13900
F348        F  0.56635934  0.62778772  0.05636461    -0.15300
C349        C  0.63960807  0.60319123  0.39228138     0.14800
C350        C  0.62227307  0.61662793  0.36600416     0.01700
C351        C  0.57990422  0.60368086  0.36743684     0.16700
C352        C  0.55544546  0.57846633  0.39502279     0.26100
C353        C  0.57276188  0.56518333  0.42148477    -0.40200
C354        C  0.61503418  0.57754232  0.41971147     0.33200
C355        C  0.64836660  0.64457965  0.33737906     0.01800
F356        F  0.56206226  0.61509508  0.34179269    -0.12500
F357        F  0.63293281  0.56610838  0.44528523    -0.13100
C358        C  0.67016886  0.63324471  0.31418817     0.16700
C359        C  0.69441073  0.65943730  0.28701036     0.26100
C360        C  0.69864892  0.69866512  0.28248787    -0.40200
C361        C  0.67409278  0.70839220  0.30500042     0.33100
C362        C  0.65038808  0.68218074  0.33241629     0.14800
F363        F  0.66732838  0.59623295  0.31737367    -0.12500
F364        F  0.66979283  0.74145863  0.29956973    -0.13000
F365        F  0.71461851  0.64653889  0.26532655    -0.15300
F366        F  0.62876675  0.69350496  0.35406287    -0.13900
F367        F  0.68060788  0.61589316  0.39194494    -0.13900
F368        F  0.51459784  0.56645071  0.39547708    -0.15300
C369        C  0.40836118  0.36912260  0.38249804     0.14800
C370        C  0.36828746  0.36341565  0.37929634     0.01700
C371        C  0.35516487  0.38311064  0.40320851     0.16700
C372        C  0.38204140  0.40919778  0.42904060     0.26100
C373        C  0.42245006  0.41555436  0.43193191    -0.40200
C374        C  0.43507156  0.39464599  0.40875093     0.33200
C375        C  0.34112501  0.33899004  0.34973650     0.01800
F376        F  0.31621131  0.37716454  0.40143739    -0.12500
F377        F  0.47386699  0.40015888  0.41042214    -0.13100
C378        C  0.33185348  0.29877556  0.34436299     0.16700
C379        C  0.30874529  0.27675258  0.31493274     0.26100
C380        C  0.29302810  0.29424402  0.29013650    -0.40200
C381        C  0.30209327  0.33480472  0.29681478     0.33100
C382        C  0.32581707  0.35664724  0.32582256     0.14800
F383        F  0.34595054  0.28082631  0.36745649    -0.12500
F384        F  0.28816112  0.35374509  0.27467483    -0.13000
F385        F  0.30450551  0.23944036  0.31055605    -0.15300
F386        F  0.33519169  0.39591230  0.32973639    -0.13900
F387        F  0.42229443  0.35133991  0.35921195    -0.13900
F388        F  0.36835838  0.42810427  0.45130188    -0.15300
C389        C  0.38948156  0.42353577  0.13647789     0.14800
C390        C  0.38420720  0.38498681  0.14426826     0.01700
C391        C  0.40469058  0.36976020  0.12333069     0.16700
C392        C  0.42921777  0.39227509  0.09456979     0.26100
C393        C  0.43327966  0.43026357  0.08586985    -0.40200
C394        C  0.41352947  0.44586430  0.10750055     0.33200
C395        C  0.35630384  0.36000242  0.17339950     0.01800
F396        F  0.39990530  0.33243981  0.13007070    -0.12500
F397        F  0.41786220  0.48304582  0.10099164    -0.13100
C398        C  0.31495535  0.35058232  0.17384654     0.16700
C399        C  0.28781264  0.32516881  0.20009215     0.26100
C400        C  0.30053230  0.30563694  0.22551603    -0.40200
C401        C  0.34360657  0.31870794  0.22630820     0.33100
C402        C  0.37067515  0.34503008  0.20058742     0.14800
F403        F  0.30046488  0.36579896  0.14843143    -0.12500
F404        F  0.35934235  0.30372081  0.25080886    -0.13000
F405        F  0.25016062  0.32219024  0.20080689    -0.15300
F406        F  0.41112553  0.35555898  0.20208068    -0.13900
F407        F  0.37156923  0.43978454  0.15717968    -0.13900
F408        F  0.44804630  0.37628304  0.07473397    -0.15300
O409        O  0.48448270  0.44583977  0.54021447    -0.69700
O410        O  0.55369453  0.51414771  0.96604265    -0.69900
O411        O  0.55550425  0.51612068  0.53722316    -0.69800
O412        O  0.48228129  0.44324288  0.96877645    -0.69800
O413        O  0.44585680  0.47346050  0.97082242    -0.69700
O414        O  0.52423800  0.55136432  0.53341409    -0.69700
O415        O  0.51664711  0.54370917  0.96275356    -0.69700
O416        O  0.45362752  0.48155933  0.54142624    -0.69900
V417        V  0.51851512  0.48007562  0.50289148     1.35200
V418        V  0.48560760  0.51215840  0.00222615     1.35200
C419        C  0.45818035  0.45326619  0.55444551     0.79600
C420        C  0.54652844  0.54012408  0.95135788     0.79600
C421        C  0.55238701  0.54634289  0.54703668     0.79500
C422        C  0.45117179  0.44540040  0.95844297     0.79400
O423        O  0.03279555  0.55473816  0.96465750    -0.69700
O424        O  0.03246886  0.48216777  0.53476982    -0.69900
O425        O  0.03434055  0.48455189  0.96323430    -0.69800
O426        O  0.03109362  0.55218772  0.53612479    -0.69800
O427        O  0.96437858  0.52204144  0.53230279    -0.69700
O428        O  0.96762792  0.44789992  0.96542224    -0.69700
O429        O  0.96563267  0.45197150  0.53700745    -0.69700
O430        O  0.96625380  0.51824165  0.96063919    -0.69900
V431        V  0.03146796  0.51766616  0.99965032     1.35200
V432        V  0.96701689  0.48571063  0.49888106     1.35200
C433        C  0.99958043  0.54845311  0.95007377     0.79600
C434        C  0.99902956  0.45542256  0.54864557     0.79600
C435        C  0.00157620  0.45413729  0.95237599     0.79500
C436        C  0.99736791  0.54891587  0.54653984     0.79400
O437        O  0.55062072  0.02842057  0.53640431    -0.69700
O438        O  0.48269819  0.03539575  0.96441241    -0.69900
O439        O  0.47857573  0.02854423  0.53501413    -0.69800
O440        O  0.55473916  0.03488783  0.96523308    -0.69800
O441        O  0.52131624  0.96938164  0.95985926    -0.69700
O442        O  0.44633516  0.96286240  0.53026284    -0.69700
O443        O  0.44937017  0.96978483  0.95946860    -0.69700
O444        O  0.51841901  0.96295820  0.53052611    -0.69900
V445        V  0.51661616  0.03127318  0.50021266     1.35200
V446        V  0.48394396  0.96697791  0.99519057     1.35200
C447        C  0.54617525  0.99435523  0.54571107     0.79600
C448        C  0.45414600  0.00393413  0.94997274     0.79600
C449        C  0.44912861  0.99434320  0.54434901     0.79500
C450        C  0.55133220  0.00332809  0.95071730     0.79400
C451        C  0.00155100  0.73117958  0.74768693    -0.00400
C452        C  0.99686293  0.27265605  0.75017537    -0.00400
C453        C  0.27188987  0.27433501  0.75434701    -0.00400
C454        C  0.27480207  0.00243754  0.74714417    -0.00400
C455        C  0.72723327  0.99834870  0.74799404    -0.00400
C456        C  0.72536578  0.72602228  0.75078108    -0.00400
C457        C  0.71109462  0.89180991  0.77663534     0.14800
C458        C  0.73588855  0.88633599  0.75189597     0.01700
C459        C  0.75711482  0.91645588  0.72622844     0.16700
C460        C  0.75362427  0.95148277  0.72525562     0.26100
C461        C  0.73009926  0.95862202  0.75099380    -0.40200
C462        C  0.70740570  0.92678804  0.77592550     0.33200
C463        C  0.73610563  0.84734933  0.75070692     0.01800
F464        F  0.78128824  0.91188628  0.70181467    -0.12500
F465        F  0.67874677  0.92692188  0.79793430    -0.13100
C466        C  0.72264976  0.82344557  0.72011138     0.16700
C467        C  0.72025436  0.78555935  0.71907647     0.26100
C468        C  0.72920444  0.76904799  0.74971216    -0.40200
C469        C  0.74612088  0.79524437  0.77938205     0.33100
C470        C  0.74869731  0.83338599  0.78007741     0.14500
F471        F  0.71132851  0.83669626  0.69090248    -0.12500
F472        F  0.75851938  0.78307882  0.80858629    -0.13000
F473        F  0.71149267  0.76695811  0.68701853    -0.15300
F474        F  0.76349262  0.85673574  0.80956586    -0.13900
F475        F  0.68828219  0.86193370  0.80039651    -0.13900
F476        F  0.77420321  0.97906837  0.69923312    -0.15300
C477        C  0.23479690  0.15883948  0.76523498     0.14800
C478        C  0.26404199  0.15374894  0.74553644     0.01700
C479        C  0.29379501  0.18748029  0.72635506     0.16700
C480        C  0.29240303  0.22349048  0.72464387     0.26100
C481        C  0.26810826  0.23141869  0.74902496    -0.40200
C482        C  0.23850176  0.19734409  0.76889251     0.33200
C483        C  0.26419141  0.11412721  0.74490582     0.01800
F484        F  0.32533822  0.18647683  0.70932078    -0.12500
F485        F  0.21296510  0.20107074  0.79233539    -0.13100
C486        C  0.27615929  0.10146679  0.71415516     0.16700
C487        C  0.28432475  0.06924689  0.71533889     0.26100
C488        C  0.27159735  0.04216608  0.74482870    -0.40200
C489        C  0.25567252  0.05313002  0.77456988     0.33100
C490        C  0.25503229  0.08968156  0.77547858     0.14800
F491        F  0.28038173  0.12034151  0.68244003    -0.12500
F492        F  0.24135605  0.02876387  0.80363254    -0.13000
F493        F  0.30613099  0.06681814  0.68771543    -0.15300
F494        F  0.24656179  0.10133173  0.80695023    -0.13900
F495        F  0.20227334  0.12670230  0.78103600    -0.13900
F496        F  0.31427629  0.24892116  0.69782605    -0.15300
C497        C  0.16805639  0.27118988  0.77805894     0.14800
C498        C  0.14460762  0.25464276  0.74729979     0.01700
C499        C  0.16114778  0.24169129  0.72006420     0.16700
C500        C  0.20129881  0.24749865  0.72281928     0.26100
C501        C  0.22651952  0.26688233  0.75285780    -0.40200
C502        C  0.20709839  0.27530554  0.78166164     0.33200
C503        C  0.10356691  0.25221646  0.74422681     0.01800
F504        F  0.13843965  0.22324731  0.69075484    -0.12500
F505        F  0.22381720  0.28535031  0.81455053    -0.13100
C506        C  0.09437986  0.26962017  0.71519741     0.16700
C507        C  0.05910760  0.27377131  0.71537652     0.26100
C508        C  0.03368311  0.26399800  0.74624657    -0.40200
C509        C  0.04082533  0.24209695  0.77337900     0.33100
C510        C  0.07487583  0.23604958  0.77215122     0.14800
F511        F  0.12023616  0.28391523  0.68682917    -0.12500
F512        F  0.01597439  0.22824222  0.80235178    -0.13000
F513        F  0.04989574  0.28604021  0.68451736    -0.15300
F514        F  0.08057735  0.21539588  0.79907952    -0.13900
F515        F  0.15325434  0.28395899  0.80512548    -0.13900
F516        F  0.21618952  0.23535914  0.69537362    -0.15300
C517        C  0.84538159  0.07516056  0.75971895     0.14800
C518        C  0.84733740  0.11181584  0.75046192     0.01700
C519        C  0.81110659  0.11204515  0.74167900     0.16700
C520        C  0.77331440  0.07595624  0.74132586     0.26100
C521        C  0.77059343  0.03778113  0.74832574    -0.40200
C522        C  0.80768804  0.03870371  0.75929042     0.33200
C523        C  0.88676827  0.15048195  0.75173534     0.01800
F524        F  0.81232386  0.14756959  0.73356352    -0.12500
F525        F  0.80803741  0.00538661  0.77207754    -0.13100
C526        C  0.91263487  0.16446723  0.72201744     0.16700
C527        C  0.94814220  0.20280909  0.72226888     0.26100
C528        C  0.95795962  0.22916076  0.75191818    -0.40200
C529        C  0.93332291  0.21238902  0.78304790     0.33100
C530        C  0.89788164  0.17410309  0.78244733     0.14800
F531        F  0.90295985  0.14124863  0.69236656    -0.12500
F532        F  0.94398450  0.23121801  0.81498975    -0.13000
F533        F  0.97186058  0.21508487  0.69254380    -0.15300
F534        F  0.87437831  0.15979113  0.81222724    -0.13900
F535        F  0.88000435  0.07484344  0.77033121    -0.13900
F536        F  0.73930473  0.07851645  0.73312077    -0.15300
C537        C  0.10225368  0.82855747  0.77751059     0.14800
C538        C  0.11340923  0.85196440  0.74643499     0.01700
C539        C  0.08604060  0.83879340  0.71764581     0.16700
C540        C  0.04939632  0.80132364  0.71912170     0.26100
C541        C  0.04023792  0.77477199  0.74872703    -0.40200
C542        C  0.06597203  0.79108019  0.77911242     0.33200
C543        C  0.15369542  0.89006261  0.74463423     0.01800
F544        F  0.09555928  0.86144232  0.68747590    -0.12500
F545        F  0.05573100  0.77245378  0.81128962    -0.13100
C546        C  0.19036521  0.88892474  0.74914233     0.16700
C547        C  0.22839510  0.92476372  0.74976076     0.26100
C548        C  0.23117298  0.96345163  0.74674998    -0.40200
C549        C  0.19365922  0.96371358  0.73993868     0.33100
C550        C  0.15572099  0.92758355  0.73947717     0.14800
F551        F  0.18936229  0.85278643  0.75287123    -0.12500
F552        F  0.19272315  0.99809768  0.73174682    -0.13000
F553        F  0.26274908  0.92155889  0.75437979    -0.15300
F554        F  0.12065537  0.92937256  0.73419062    -0.13900
F555        F  0.12641826  0.84250162  0.80685871    -0.13900
F556        F  0.02429211  0.78969119  0.69031988    -0.15300
C557        C  0.92219961  0.76381488  0.77598185     0.14800
C558        C  0.89320148  0.74890640  0.74840289     0.01700
C559        C  0.90191886  0.73300320  0.71814991     0.16700
C560        C  0.93769686  0.72998400  0.71623032     0.26100
C561        C  0.96429482  0.73931275  0.74611471    -0.40200
C562        C  0.95725252  0.75935831  0.77484062     0.33200
C563        C  0.85309974  0.74815418  0.75159025     0.01800
F564        F  0.87513348  0.71924653  0.69045641    -0.12500
F565        F  0.98306073  0.77254843  0.80312917    -0.13100
C566        C  0.83922306  0.76393778  0.72453156     0.16700
C567        C  0.79908356  0.75784420  0.72519947     0.26100
C568        C  0.77121328  0.73558927  0.75311196    -0.40200
C569        C  0.78802158  0.72527266  0.78270644     0.33100
C570        C  0.82748399  0.72973798  0.78107287     0.14800
F571        F  0.86431895  0.78462474  0.69686387    -0.12500
F572        F  0.76763390  0.71206130  0.81401075    -0.13000
F573        F  0.78670928  0.77163165  0.69710799    -0.15300
F574        F  0.84018720  0.71487398  0.80819526    -0.13900
F575        F  0.91623501  0.78215618  0.80449721    -0.13900
F576        F  0.94618732  0.71924570  0.68434282    -0.15300
C577        C  0.60058929  0.95326234  0.60432221     0.14800
C578        C  0.62484309  0.98687063  0.62596790     0.01700
C579        C  0.62257881  0.02252875  0.62160441     0.16700
C580        C  0.59708832  0.02493322  0.59564264     0.26100
C581        C  0.57289641  0.99146835  0.57356706    -0.40200
C582        C  0.57482009  0.95546822  0.57836536     0.33200
C583        C  0.65226857  0.98514868  0.65357572     0.01800
F584        F  0.64458195  0.05492064  0.64309471    -0.12500
F585        F  0.55240256  0.92255923  0.55755164    -0.13100
C586        C  0.69474231  0.01262107  0.65264970     0.16700
C587        C  0.72004968  0.01528319  0.68113695     0.26100
C588        C  0.70286697  0.99195414  0.71253411    -0.40200
C589        C  0.66098024  0.96043458  0.71067391     0.33100
C590        C  0.63596111  0.95773976  0.68197460     0.14800
F591        F  0.71176038  0.03729266  0.62402256    -0.12500
F592        F  0.64292735  0.93447642  0.73829008    -0.13000
F593        F  0.76120740  0.04020117  0.67703528    -0.15300
F594        F  0.59509995  0.93001973  0.68312693    -0.13900
F595        F  0.60244688  0.91853764  0.60789354    -0.13900
F596        F  0.59574658  0.05997048  0.59258796    -0.15300
C597        C  0.65127935  0.01722494  0.80580347     0.14800
C598        C  0.66242944  0.01210297  0.84000648     0.01700
C599        C  0.69686765  0.00720930  0.84473496     0.16700
C600        C  0.71859543  0.00509800  0.81528251     0.26100
C601        C  0.70460348  0.00495307  0.78011231    -0.40200
C602        C  0.67230496  0.01452445  0.77624538     0.33200
C603        C  0.63684990  0.01045706  0.87043473     0.01800
F604        F  0.70902551  0.00375835  0.87794304    -0.12500
F605        F  0.66159728  0.02333522  0.74438545    -0.13100
C606        C  0.60782761  0.97273912  0.88459666     0.16700
C607        C  0.58032025  0.97037964  0.91091313     0.26100
C608        C  0.58156555  0.00593991  0.92371184    -0.40200
C609        C  0.61177495  0.04389931  0.91005928     0.33100
C610        C  0.63889184  0.04600968  0.88340703     0.14800
F611        F  0.60530541  0.93802698  0.87204431    -0.12500
F612        F  0.61466170  0.07902257  0.92185812    -0.13000
F613        F  0.55229717  0.93316067  0.92353126    -0.15300
F614        F  0.66677263  0.08272963  0.86978771    -0.13900
F615        F  0.61942727  0.02449328  0.80096199    -0.13900
F616        F  0.75178628  0.00033219  0.82132792    -0.15300
C617        C  0.38033496  0.97794276  0.87245431     0.14800
C618        C  0.37533536  0.01228302  0.87044879     0.01700
C619        C  0.39608216  0.04390972  0.89489917     0.16700
C620        C  0.42160034  0.04124202  0.92089864     0.26100
C621        C  0.42694376  0.00691199  0.92272721    -0.40200
C622        C  0.40573900  0.97519590  0.89830583     0.33200
C623        C  0.34814038  0.01425663  0.84271379     0.01800
F624        F  0.39088973  0.07692350  0.89408705    -0.12500
F625        F  0.41015569  0.94172480  0.89889925    -0.13100
C626        C  0.30631358  0.98480407  0.84198348     0.16700
C627        C  0.28162682  0.98184933  0.81297185     0.26100
C628        C  0.29878044  0.00749954  0.78273107    -0.40200
C629        C  0.33956421  0.04080585  0.78639356     0.33100
C630        C  0.36412811  0.04348078  0.81557625     0.14800
F631        F  0.28924240  0.95857619  0.86964948    -0.12500
F632        F  0.35697290  0.06876416  0.75997031    -0.13000
F633        F  0.24075049  0.95504822  0.81598389    -0.15300
F634        F  0.40429274  0.07317370  0.81619179    -0.13900
F635        F  0.36103118  0.94720785  0.84881359    -0.13900
F636        F  0.44013971  0.07174838  0.94485034    -0.15300
C637        C  0.35398624  0.98861658  0.68868075     0.14800
C638        C  0.33894766  0.98749994  0.65453380     0.01700
C639        C  0.30154068  0.98717978  0.65035565     0.16700
C640        C  0.28064650  0.99035620  0.68003091     0.26100
C641        C  0.29774982  0.99614280  0.71479063    -0.40200
C642        C  0.33312311  0.99114839  0.71836964     0.33200
C643        C  0.36303446  0.98694718  0.62364610     0.01800
F644        F  0.28527267  0.98390351  0.61746200    -0.12500
F645        F  0.34664147  0.98532792  0.75006396    -0.13100
C646        C  0.37112018  0.95475326  0.61921583     0.16700
C647        C  0.39867352  0.95683774  0.59306236     0.26100
C648        C  0.41868354  0.99128011  0.57097481    -0.40200
C649        C  0.40962920  0.02299116  0.57482018     0.33100
C650        C  0.38191885  0.02075361  0.60090940     0.14800
F651        F  0.35311028  0.92176452  0.64093567    -0.12500
F652        F  0.42768315  0.05623695  0.55339618    -0.13000
F653        F  0.40719949  0.92601043  0.59048197    -0.15300
F654        F  0.37490092  0.05240349  0.60503477    -0.13900
F655        F  0.38930033  0.98709326  0.69341550    -0.13900
F656        F  0.24454489  0.99002156  0.67441391    -0.15300
C657        C  0.96547094  0.61053890  0.60485229     0.14800
C658        C  0.99744049  0.62644203  0.63009070     0.01700
C659        C  0.02875350  0.61617291  0.62788208     0.16700
C660        C  0.02870387  0.59126524  0.60062275     0.26100
C661        C  0.99691253  0.57542062  0.57519618    -0.40200
C662        C  0.96502842  0.58499435  0.57777874     0.33200
C663        C  0.99838887  0.65362091  0.65885549     0.01800
F664        F  0.05910708  0.62964919  0.65266087    -0.12500
F665        F  0.93401313  0.57053968  0.55360320    -0.13100
C666        C  0.96533878  0.64073049  0.68259832     0.16700
C667        C  0.96699074  0.66570718  0.71051633     0.26100
C668        C  0.00169517  0.70508729  0.71549908    -0.40200
C669        C  0.03594633  0.71639982  0.69238912     0.33100
C670        C  0.03354026  0.69164433  0.66398951     0.14800
F671        F  0.93161864  0.60331088  0.67934273    -0.12500
F672        F  0.07326362  0.74959184  0.69806065    -0.13000
F673        F  0.93383139  0.65146676  0.73247120    -0.15300
F674        F  0.06631647  0.70472547  0.64166614    -0.13900
F675        F  0.93515503  0.62045768  0.60597383    -0.13900
F676        F  0.05933108  0.58177479  0.59974460    -0.15300
C677        C  0.03348191  0.67249311  0.81338921     0.14800
C678        C  0.00016595  0.65404715  0.83707024     0.01700
C679        C  0.96639257  0.66020943  0.83193664     0.16700
C680        C  0.96558512  0.68394393  0.80362868     0.26100
C681        C  0.00003396  0.70462493  0.78039566    -0.40200
C682        C  0.03347264  0.69714794  0.78566269     0.33200
C683        C  0.99997738  0.62716497  0.86623759     0.01800
F684        F  0.93351869  0.64272147  0.85429664    -0.12500
F685        F  0.06688772  0.71424343  0.76392275    -0.13100
C686        C  0.03305033  0.64097180  0.89031387     0.16700
C687        C  0.03308386  0.61543432  0.91735071     0.26100
C688        C  0.99970462  0.57562209  0.92131799    -0.40200
C689        C  0.96651215  0.56195710  0.89731738     0.33100
C690        C  0.96687475  0.58726304  0.86992617     0.14800
F691        F  0.06513536  0.67954384  0.88805972    -0.12500
F692        F  0.93402889  0.52362701  0.89968018    -0.13000
F693        F  0.06551667  0.63009104  0.94008751    -0.15300
F694        F  0.93524191  0.57228497  0.84634339    -0.13900
F695        F  0.06590920  0.66582555  0.81645981    -0.13900
F696        F  0.92954093  0.68364178  0.79825667    -0.15300
C697        C  0.97336954  0.36015170  0.89720008     0.14800
C698        C  0.00431226  0.37555419  0.87095615     0.01700
C699        C  0.03513019  0.41663915  0.87236544     0.16700
C700        C  0.03466838  0.44196812  0.89919203     0.26100
C701        C  0.00301031  0.42684639  0.92489381    -0.40200
C702        C  0.97257704  0.38554931  0.92378028     0.33200
C703        C  0.00314152  0.34922420  0.84122088     0.01800
F704        F  0.06485437  0.43265724  0.84695381    -0.12500
F705        F  0.94238552  0.36952808  0.94879150    -0.13100
C706        C  0.96892134  0.33145402  0.81865837     0.16700
C707        C  0.96742563  0.30697312  0.79039554     0.26100
C708        C  0.00011420  0.29875012  0.78361725    -0.40200
C709        C  0.03541795  0.31849817  0.80599163     0.33100
C710        C  0.03637177  0.34267784  0.83455946     0.14800
F711        F  0.93702322  0.33863016  0.82347857    -0.12500
F712        F  0.07049942  0.31727997  0.79957292    -0.13000
F713        F  0.93321844  0.29067025  0.76968899    -0.15300
F714        F  0.07026977  0.36016480  0.85566596    -0.13900
F715        F  0.94393337  0.32032197  0.89713948    -0.13900
F716        F  0.06435767  0.48171102  0.89916899    -0.15300
C717        C  0.02984218  0.39372478  0.60825779     0.14800
C718        C  0.99847583  0.37900852  0.63412702     0.01700
C719        C  0.96768618  0.39004948  0.63193134     0.16700
C720        C  0.96769182  0.41455704  0.60402482     0.26100
C721        C  0.99892457  0.42914515  0.57799645    -0.40200
C722        C  0.03020081  0.41873027  0.58057321     0.33200
C723        C  0.99756387  0.35192517  0.66323253     0.01800
F724        F  0.93799294  0.37774612  0.65731655    -0.12500
F725        F  0.06052542  0.43180364  0.55572000    -0.13100
C726        C  0.03115070  0.36444673  0.68625366     0.16700
C727        C  0.03021536  0.33896641  0.71363452     0.26100
C728        C  0.99567302  0.29946728  0.71883135    -0.40200
C729        C  0.96077817  0.28862323  0.69672984     0.33100
C730        C  0.96244765  0.31390719  0.66881714     0.14800
F731        F  0.06486208  0.40185866  0.68263591    -0.12500
F732        F  0.92371470  0.25517731  0.70284683    -0.13000
F733        F  0.06397301  0.35275380  0.73473904    -0.15300
F734        F  0.92919874  0.30115372  0.64719377    -0.13900
F735        F  0.05967020  0.38313376  0.60934523    -0.13900
F736        F  0.93771535  0.42494935  0.60308234    -0.15300
C737        C  0.62544796  0.58690120  0.62518400     0.14800
C738        C  0.63086045  0.62613383  0.62887293     0.01700
C739        C  0.61105056  0.63942021  0.60491456     0.16700
C740        C  0.58555694  0.61359862  0.57824469     0.26100
C741        C  0.58026723  0.57434528  0.57445460    -0.40200
C742        C  0.60082349  0.56144517  0.59805282     0.33200
C743        C  0.65572219  0.65233630  0.65862943     0.01800
F744        F  0.61649638  0.67751820  0.60726723    -0.12500
F745        F  0.59584813  0.52351336  0.59588803    -0.13100
C746        C  0.69591641  0.65970947  0.66466410     0.16700
C747        C  0.71834698  0.68189302  0.69419900     0.26100
C748        C  0.70222251  0.70016865  0.71750428    -0.40200
C749        C  0.66098890  0.69132387  0.71130768     0.33100
C750        C  0.63835993  0.66798994  0.68243169     0.14800
F751        F  0.71348704  0.64475750  0.64208414    -0.12500
F752        F  0.64258425  0.70619401  0.73296642    -0.13000
F753        F  0.75433948  0.68240796  0.70053786    -0.15300
F754        F  0.59886519  0.65992078  0.67823885    -0.13900
F755        F  0.64278760  0.57255447  0.64872911    -0.13900
F756        F  0.56624410  0.62716288  0.55607160    -0.15300
C757        C  0.63914447  0.60384283  0.89241056     0.14800
C758        C  0.62174076  0.61711190  0.86605500     0.01700
C759        C  0.57936587  0.60414369  0.86751783     0.16700
C760        C  0.55495947  0.57901986  0.89517782     0.26100
C761        C  0.57234037  0.56586268  0.92168633    -0.40200
C762        C  0.61462606  0.57828680  0.91990910     0.33200
C763        C  0.64777585  0.64487440  0.83729836     0.01800
F764        F  0.56146245  0.61542065  0.84182119    -0.12500
F765        F  0.63258477  0.56698279  0.94553124    -0.13100
C766        C  0.66953582  0.63338124  0.81420530     0.16700
C767        C  0.69380063  0.65942399  0.78695305     0.26100
C768        C  0.69816055  0.69867987  0.78229571    -0.40200
C769        C  0.67359533  0.70854088  0.80466993     0.33100
C770        C  0.64983084  0.68246342  0.83213720     0.14800
F771        F  0.66666133  0.59637205  0.81758202    -0.12500
F772        F  0.66937758  0.74163068  0.79906685    -0.13000
F773        F  0.71395781  0.64637766  0.76536641    -0.15300
F774        F  0.62822136  0.69392528  0.85365650    -0.13900
F775        F  0.68015677  0.61660322  0.89206921    -0.13900
F776        F  0.51409531  0.56693232  0.89564055    -0.15300
C777        C  0.40793447  0.36945701  0.88303537     0.14800
C778        C  0.36797396  0.36397157  0.87958360     0.01700
C779        C  0.35493958  0.38401282  0.90319998     0.16700
C780        C  0.38179781  0.41017865  0.92900762     0.26100
C781        C  0.42208568  0.41626215  0.93216712    -0.40200
C782        C  0.43460715  0.39504233  0.90926057     0.33200
C783        C  0.34089908  0.33942518  0.85003070     0.01800
F784        F  0.31609821  0.37832869  0.90116853    -0.12500
F785        F  0.47328194  0.40027589  0.91117789    -0.13100
C786        C  0.33161219  0.29916944  0.84486192     0.16700
C787        C  0.30876785  0.27708156  0.81535164     0.26100
C788        C  0.29331348  0.29453895  0.79028047    -0.40200
C789        C  0.30230805  0.33511494  0.79678943     0.33100
C790        C  0.32580822  0.35703411  0.82585687     0.14800
F791        F  0.34544055  0.28124376  0.86824273    -0.12500
F792        F  0.28851494  0.35399315  0.77443304    -0.13000
F793        F  0.30443000  0.23969902  0.81123110    -0.15300
F794        F  0.33519646  0.39632646  0.82956644    -0.13900
F795        F  0.42181385  0.35138764  0.86000792    -0.13900
F796        F  0.36821539  0.42942529  0.95097227    -0.15300
C797        C  0.39003529  0.42365279  0.63643410     0.14800
C798        C  0.38480477  0.38516832  0.64443910     0.01700
C799        C  0.40523090  0.36980067  0.62360280     0.16700
C800        C  0.42963110  0.39209315  0.59470490     0.26100
C801        C  0.43363906  0.43000504  0.58578373    -0.40200
C802        C  0.41398051  0.44577219  0.60733654     0.33200
C803        C  0.35691703  0.36032756  0.67362578     0.01800
F804        F  0.40049357  0.33254302  0.63057294    -0.12500
F805        F  0.41830498  0.48291553  0.60063272    -0.13100
C806        C  0.31552041  0.35073110  0.67391883     0.16700
C807        C  0.28833012  0.32524369  0.70009978     0.26100
C808        C  0.30107986  0.30585113  0.72564778    -0.40200
C809        C  0.34422393  0.31924612  0.72667415     0.33100
C810        C  0.37131861  0.34557889  0.70096793     0.14800
F811        F  0.30102980  0.36584823  0.64841566    -0.12500
F812        F  0.36001840  0.30453553  0.75137958    -0.13000
F813        F  0.25061269  0.32211695  0.70065578    -0.15300
F814        F  0.41181885  0.35632044  0.70261227    -0.13900
F815        F  0.37216462  0.44003073  0.65702934    -0.13900
F816        F  0.44838843  0.37595895  0.57495873    -0.15300
loop_ 
_geom_bond_atom_site_label_1 
_geom_bond_atom_site_label_2 
_geom_bond_distance 
_geom_bond_site_symmetry_2 
_ccdc_geom_bond_type 
O1            V9   1.904       .  S
O1           C11   1.267       .  A
O2          V417   1.905       .  S
O2           C12   1.266       .  A
O3            V9   1.893       .  S
O3           C13   1.264       .  A
O4          V417   1.900       .  S
O4           C14   1.265       .  A
O5           V10   1.899       .  S
O5           C14   1.265       .  A
O6          V418   1.899       .  S
O6           C13   1.265       .  A
O7           V10   1.896       .  S
O7           C12   1.263       .  A
O8          V418   1.894       .  S
O8           C11   1.263       .  A
V9          O410   1.905   1_554  S
V9          O412   1.899   1_554  S
V9          V418   2.084       .  T
V10         O414   1.899       .  S
V10         O416   1.894       .  S
V10         V417   2.084       .  T
C11         C393   1.484       .  S
C12         C353   1.480       .  S
C13         C333   1.479       .  S
C14         C373   1.482       .  S
O15          V23   1.905       .  S
O15          C25   1.266   1_455  A
O16         V431   1.904   1_554  S
O16          C26   1.266   1_455  A
O17          V23   1.900       .  S
O17          C27   1.264       .  A
O18         V431   1.897   1_554  S
O18          C28   1.264   1_455  A
O19          V24   1.907   1_554  S
O19          C28   1.266       .  A
O20         V432   1.907       .  S
O20          C27   1.267   1_655  A
O21          V24   1.903   1_554  S
O21          C26   1.265       .  A
O22         V432   1.904       .  S
O22          C25   1.266       .  A
V23         O424   1.904       .  S
V23         O426   1.896       .  S
V23         V432   2.083   1_455  T
V24         O428   1.907       .  S
V24         O430   1.905       .  S
V24         V431   2.083   1_655  T
C25         C280   1.489       .  S
C26         C313   1.484       .  S
C27         C293   1.485       .  S
C28         C253   1.483       .  S
O29          V37   1.900       .  S
O29          C39   1.265   1_545  A
O30         V445   1.902       .  S
O30          C40   1.265       .  A
O31          V37   1.896       .  S
O31          C41   1.264   1_545  A
O32         V445   1.901       .  S
O32          C42   1.265       .  A
O33          V38   1.895       .  S
O33          C42   1.264   1_565  A
O34         V446   1.897   1_554  S
O34          C41   1.264       .  A
O35          V38   1.902       .  S
O35          C40   1.266   1_565  A
O36         V446   1.902   1_554  S
O36          C39   1.265       .  A
V37         O438   1.902   1_554  S
V37         O440   1.899   1_554  S
V37         V446   2.085   1_544  T
V38         O442   1.896       .  S
V38         O444   1.902       .  S
V38         V445   2.085   1_565  T
C39         C173   1.487       .  S
C40         C213   1.486       .  S
C41         C240   1.478       .  S
C42         C200   1.485       .  S
C43         C133   1.567       .  S
C43         C153   1.567   1_455  S
C43         C260   1.569       .  S
C43         C273   1.570       .  S
C44         C100   1.569   1_655  S
C44         C120   1.568       .  S
C44         C300   1.571       .  S
C44         C320   1.569       .  S
C45          C73   1.574       .  S
C45          C93   1.573       .  S
C45         C380   1.568       .  S
C45         C400   1.575       .  S
C46          C80   1.570       .  S
C46         C140   1.566   1_545  S
C46         C220   1.569       .  S
C46         C233   1.574   1_545  S
C47          C53   1.565       .  S
C47         C113   1.568   1_565  S
C47         C180   1.565       .  S
C47         C193   1.565   1_565  S
C48          C60   1.565       .  S
C48         C160   1.566       .  S
C48         C340   1.564       .  S
C48         C360   1.569       .  S
C49          C50   1.400       .  A
C49          C54   1.399       .  A
C49          F67   1.358       .  S
C50          C55   1.482       .  S
C50          C51   1.400       .  A
C51          C52   1.397       .  A
C51          F56   1.358       .  S
C52          C53   1.421       .  A
C52          F68   1.356       .  S
C53          C54   1.426       .  A
C54          F57   1.355       .  S
C55          C58   1.399       .  A
C55          C62   1.402       .  A
C58          C59   1.394       .  A
C58          F63   1.359       .  S
C59          C60   1.427       .  A
C59          F65   1.356       .  S
C60          C61   1.421       .  A
C61          C62   1.401       .  A
C61          F64   1.357       .  S
C62          F66   1.358       .  S
C69          C70   1.410       .  A
C69          C74   1.403       .  A
C69          F87   1.357       .  S
C70          C75   1.505       .  S
C70          C71   1.406       .  A
C71          C72   1.392       .  A
C71          F76   1.357       .  S
C72          C73   1.423       .  A
C72          F88   1.353       .  S
C73          C74   1.424       .  A
C74          F77   1.357       .  S
C75          C78   1.409       .  A
C75          C82   1.407       .  A
C78          C79   1.398       .  A
C78          F83   1.358       .  S
C79          C80   1.421       .  A
C79          F85   1.352       .  S
C80          C81   1.424       .  A
C81          C82   1.398       .  A
C81          F84   1.356       .  S
C82          F86   1.357       .  S
C89          C90   1.401       .  A
C89          C94   1.393       .  A
C89         F107   1.359       .  S
C90          C95   1.492       .  S
C90          C91   1.406       .  A
C91          C92   1.406       .  A
C91          F96   1.358       .  S
C92          C93   1.423       .  A
C92         F108   1.358       .  S
C93          C94   1.426       .  A
C94          F97   1.355       .  S
C95          C98   1.402       .  A
C95         C102   1.405       .  A
C98          C99   1.400       .  A
C98         F103   1.358       .  S
C99         C100   1.427       .  A
C99         F105   1.356       .  S
C100        C101   1.420       .  A
C101        C102   1.399       .  A
C101        F104   1.356       .  S
C102        F106   1.358       .  S
C109        C110   1.397       .  A
C109        C114   1.401       .  A
C109        F127   1.358       .  S
C110        C115   1.476       .  S
C110        C111   1.396       .  A
C111        C112   1.396       .  A
C111        F116   1.358       .  S
C112        C113   1.423       .  A
C112        F128   1.355       .  S
C113        C114   1.428       .  A
C114        F117   1.356       .  S
C115        C118   1.398       .  A
C115        C122   1.397       .  A
C118        C119   1.400       .  A
C118        F123   1.358       .  S
C119        C120   1.422       .  A
C119        F125   1.357       .  S
C120        C121   1.428       .  A
C121        C122   1.398       .  A
C121        F124   1.356       .  S
C122        F126   1.358       .  S
C129        C130   1.398       .  A
C129        C134   1.396       .  A
C129        F147   1.358       .  S
C130        C135   1.483       .  S
C130        C131   1.402       .  A
C131        C132   1.402       .  A
C131        F136   1.358       .  S
C132        C133   1.422       .  A
C132        F148   1.357       .  S
C133        C134   1.425       .  A
C134        F137   1.356       .  S
C135        C138   1.400       .  A
C135        C142   1.399       .  A
C138        C139   1.397       .  A
C138        F143   1.358       .  S
C139        C140   1.422       .  A
C139        F145   1.357       .  S
C140        C141   1.428       .  A
C141        C142   1.400       .  A
C141        F144   1.355       .  S
C142        F146   1.358       .  S
C149        C150   1.403       .  A
C149        C154   1.400       .  A
C149        F167   1.358       .  S
C150        C155   1.488       .  S
C150        C151   1.402       .  A
C151        C152   1.397       .  A
C151        F156   1.358       .  S
C152        C153   1.425       .  A
C152        F168   1.356       .  S
C153        C154   1.421       .  A
C154        F157   1.356       .  S
C155        C158   1.402       .  A
C155        C162   1.403       .  A
C158        C159   1.399       .  A
C158        F163   1.358       .  S
C159        C160   1.422       .  A
C159        F165   1.356       .  S
C160        C161   1.424       .  A
C161        C162   1.398       .  A
C161        F164   1.355       .  S
C162        F166   1.358       .  S
C169        C170   1.404       .  A
C169        C174   1.402       .  A
C169        F187   1.358       .  S
C170        C175   1.482       .  S
C170        C171   1.404   1_565  A
C171        C172   1.397       .  A
C171        F176   1.358       .  S
C172        C173   1.410   1_545  A
C172        F188   1.358       .  S
C173        C174   1.412       .  A
C174        F177   1.358       .  S
C175        C178   1.401   1_565  A
C175        C182   1.399       .  A
C178        C179   1.399       .  A
C178        F183   1.358       .  S
C179        C180   1.422   1_545  A
C179        F185   1.356       .  S
C180        C181   1.424       .  A
C181        C182   1.398       .  A
C181        F184   1.356       .  S
C182        F186   1.358       .  S
C189        C190   1.396       .  A
C189        C194   1.395       .  A
C189        F207   1.359       .  S
C190        C195   1.473       .  S
C190        C191   1.398       .  A
C191        C192   1.399       .  A
C191        F196   1.358       .  S
C192        C193   1.422       .  A
C192        F208   1.356       .  S
C193        C194   1.428       .  A
C194        F197   1.356       .  S
C195        C198   1.401   1_545  A
C195        C202   1.402       .  A
C198        C199   1.397       .  A
C198        F203   1.358       .  S
C199        C200   1.412   1_565  A
C199        F205   1.358       .  S
C200        C201   1.412       .  A
C201        C202   1.399       .  A
C201        F204   1.358       .  S
C202        F206   1.358       .  S
C209        C210   1.405   1_565  A
C209        C214   1.397       .  A
C209        F227   1.358       .  S
C210        C215   1.483       .  S
C210        C211   1.404       .  A
C211        C212   1.403       .  A
C211        F216   1.358       .  S
C212        C213   1.412       .  A
C212        F228   1.358       .  S
C213        C214   1.408   1_545  A
C214        F217   1.358       .  S
C215        C218   1.399   1_545  A
C215        C222   1.401       .  A
C218        C219   1.397       .  A
C218        F223   1.358       .  S
C219        C220   1.424   1_565  A
C219        F225   1.355       .  S
C220        C221   1.424       .  A
C221        C222   1.402       .  A
C221        F224   1.358       .  S
C222        F226   1.358       .  S
C229        C230   1.394       .  A
C229        C234   1.393       .  A
C229        F247   1.359       .  S
C230        C235   1.475       .  S
C230        C231   1.398       .  A
C231        C232   1.401       .  A
C231        F236   1.358       .  S
C232        C233   1.425       .  A
C232        F248   1.358       .  S
C233        C234   1.430       .  A
C234        F237   1.355       .  S
C235        C238   1.404       .  A
C235        C242   1.402   1_565  A
C238        C239   1.398       .  A
C238        F243   1.358       .  S
C239        C240   1.408       .  A
C239        F245   1.358       .  S
C240        C241   1.409   1_565  A
C241        C242   1.397       .  A
C241        F244   1.358       .  S
C242        F246   1.358       .  S
C249        C250   1.408       .  A
C249        C254   1.403       .  A
C249        F267   1.358       .  S
C250        C255   1.486       .  S
C250        C251   1.405   1_655  A
C251        C252   1.396       .  A
C251        F256   1.358       .  S
C252        C253   1.408   1_455  A
C252        F268   1.358       .  S
C253        C254   1.409       .  A
C254        F257   1.358       .  S
C255        C258   1.400       .  A
C255        C262   1.402   1_655  A
C258        C259   1.398       .  A
C258        F263   1.358       .  S
C259        C260   1.424   1_655  A
C259        F265   1.357       .  S
C260        C261   1.425       .  A
C261        C262   1.399       .  A
C261        F264   1.355       .  S
C262        F266   1.358       .  S
C269        C270   1.402   1_455  A
C269        C274   1.398       .  A
C269        F287   1.358       .  S
C270        C275   1.492       .  S
C270        C271   1.404       .  A
C271        C272   1.402       .  A
C271        F276   1.358       .  S
C272        C273   1.425   1_655  A
C272        F288   1.355       .  S
C273        C274   1.423       .  A
C274        F277   1.357       .  S
C275        C278   1.408   1_655  A
C275        C282   1.408       .  A
C278        C279   1.402       .  A
C278        F283   1.358       .  S
C279        C280   1.410   1_455  A
C279        F285   1.358       .  S
C280        C281   1.410       .  A
C281        C282   1.401       .  A
C281        F284   1.358       .  S
C282        F286   1.358       .  S
C289        C290   1.407   1_655  A
C289        C294   1.401       .  A
C289        F307   1.358       .  S
C290        C295   1.488       .  S
C290        C291   1.406       .  A
C291        C292   1.402       .  A
C291        F296   1.358       .  S
C292        C293   1.409       .  A
C292        F308   1.358       .  S
C293        C294   1.408   1_455  A
C294        F297   1.358       .  S
C295        C298   1.399   1_455  A
C295        C302   1.402       .  A
C298        C299   1.397       .  A
C298        F303   1.358       .  S
C299        C300   1.424       .  A
C299        F305   1.357       .  S
C300        C301   1.426   1_655  A
C301        C302   1.404       .  A
C301        F304   1.354       .  S
C302        F306   1.358       .  S
C309        C310   1.407   1_455  A
C309        C314   1.402       .  A
C309        F327   1.358       .  S
C310        C315   1.488       .  S
C310        C311   1.406       .  A
C311        C312   1.400       .  A
C311        F316   1.358       .  S
C312        C313   1.408       .  A
C312        F328   1.358       .  S
C313        C314   1.408   1_655  A
C314        F317   1.358       .  S
C315        C318   1.401   1_655  A
C315        C322   1.402       .  A
C318        C319   1.399       .  A
C318        F323   1.358       .  S
C319        C320   1.424   1_455  A
C319        F325   1.357       .  S
C320        C321   1.424       .  A
C321        C322   1.400       .  A
C321        F324   1.355       .  S
C322        F326   1.358       .  S
C329        C330   1.405       .  A
C329        C334   1.395       .  A
C329        F347   1.358       .  S
C330        C335   1.482       .  S
C330        C331   1.407       .  A
C331        C332   1.399       .  A
C331        F336   1.358       .  S
C332        C333   1.408       .  A
C332        F348   1.358       .  S
C333        C334   1.409       .  A
C334        F337   1.358       .  S
C335        C338   1.402       .  A
C335        C342   1.400       .  A
C338        C339   1.398       .  A
C338        F343   1.358       .  S
C339        C340   1.424       .  A
C339        F345   1.355       .  S
C340        C341   1.423       .  A
C341        C342   1.394       .  A
C341        F344   1.357       .  S
C342        F346   1.358       .  S
C349        C350   1.407       .  A
C349        C354   1.401       .  A
C349        F367   1.358       .  S
C350        C355   1.484       .  S
C350        C351   1.405       .  A
C351        C352   1.398       .  A
C351        F356   1.358       .  S
C352        C353   1.408       .  A
C352        F368   1.358       .  S
C353        C354   1.407       .  A
C354        F357   1.358       .  S
C355        C358   1.399       .  A
C355        C362   1.401       .  A
C358        C359   1.398       .  A
C358        F363   1.358       .  S
C359        C360   1.425       .  A
C359        F365   1.357       .  S
C360        C361   1.425       .  A
C361        C362   1.399       .  A
C361        F364   1.355       .  S
C362        F366   1.358       .  S
C369        C370   1.406       .  A
C369        C374   1.399       .  A
C369        F387   1.358       .  S
C370        C375   1.484       .  S
C370        C371   1.405       .  A
C371        C372   1.398       .  A
C371        F376   1.358       .  S
C372        C373   1.409       .  A
C372        F388   1.358       .  S
C373        C374   1.409       .  A
C374        F377   1.358       .  S
C375        C378   1.401       .  A
C375        C382   1.399       .  A
C378        C379   1.401       .  A
C378        F383   1.358       .  S
C379        C380   1.426       .  A
C379        F385   1.353       .  S
C380        C381   1.424       .  A
C381        C382   1.394       .  A
C381        F384   1.358       .  S
C382        F386   1.358       .  S
C389        C390   1.404       .  A
C389        C394   1.398       .  A
C389        F407   1.358       .  S
C390        C395   1.483       .  S
C390        C391   1.407       .  A
C391        C392   1.399       .  A
C391        F396   1.358       .  S
C392        C393   1.408       .  A
C392        F408   1.358       .  S
C393        C394   1.411       .  A
C394        F397   1.358       .  S
C395        C398   1.401       .  A
C395        C402   1.398       .  A
C398        C399   1.399       .  A
C398        F403   1.358       .  S
C399        C400   1.425       .  A
C399        F405   1.353       .  S
C400        C401   1.429       .  A
C401        C402   1.396       .  A
C401        F404   1.358       .  S
C402        F406   1.358       .  S
O409        V417   1.904       .  S
O409        C419   1.267       .  A
O410        C420   1.266       .  A
O411        V417   1.894       .  S
O411        C421   1.264       .  A
O412        C422   1.265       .  A
O413        V418   1.899   1_556  S
O413        C422   1.265       .  A
O414        C421   1.265       .  A
O415        V418   1.896   1_556  S
O415        C420   1.264       .  A
O416        C419   1.263       .  A
C419        C801   1.484       .  S
C420        C761   1.480       .  S
C421        C741   1.479       .  S
C422        C781   1.482       .  S
O423        V431   1.905       .  S
O423        C433   1.266   1_455  A
O424        C434   1.266   1_455  A
O425        V431   1.900       .  S
O425        C435   1.264       .  A
O426        C436   1.264   1_455  A
O427        V432   1.907       .  S
O427        C436   1.266       .  A
O428        C435   1.267   1_655  A
O429        V432   1.902       .  S
O429        C434   1.265       .  A
O430        C433   1.266       .  A
C433        C688   1.490       .  S
C434        C721   1.483       .  S
C435        C701   1.485       .  S
C436        C661   1.483       .  S
O437        V445   1.901       .  S
O437        C447   1.266   1_545  A
O438        C448   1.265       .  A
O439        V445   1.897       .  S
O439        C449   1.264   1_545  A
O440        C450   1.265       .  A
O441        V446   1.896       .  S
O441        C450   1.264   1_565  A
O442        C449   1.264       .  A
O443        V446   1.902       .  S
O443        C448   1.266   1_565  A
O444        C447   1.265       .  A
C447        C581   1.488       .  S
C448        C621   1.486       .  S
C449        C648   1.476       .  S
C450        C608   1.485       .  S
C451        C541   1.567       .  S
C451        C561   1.567   1_455  S
C451        C668   1.569       .  S
C451        C681   1.571       .  S
C452        C508   1.570   1_655  S
C452        C528   1.568       .  S
C452        C708   1.571   1_655  S
C452        C728   1.569       .  S
C453        C481   1.575       .  S
C453        C501   1.574       .  S
C453        C788   1.567       .  S
C453        C808   1.576       .  S
C454        C488   1.570       .  S
C454        C548   1.566   1_545  S
C454        C628   1.570       .  S
C454        C641   1.574   1_545  S
C455        C461   1.565       .  S
C455        C521   1.568   1_565  S
C455        C588   1.566       .  S
C455        C601   1.565   1_565  S
C456        C468   1.565       .  S
C456        C568   1.566       .  S
C456        C748   1.564       .  S
C456        C768   1.569       .  S
C457        C458   1.399       .  A
C457        C462   1.399       .  A
C457        F475   1.358       .  S
C458        C463   1.482       .  S
C458        C459   1.400       .  A
C459        C460   1.397       .  A
C459        F464   1.358       .  S
C460        C461   1.421       .  A
C460        F476   1.357       .  S
C461        C462   1.426       .  A
C462        F465   1.355       .  S
C463        C466   1.399       .  A
C463        C470   1.402       .  A
C466        C467   1.394       .  A
C466        F471   1.358       .  S
C467        C468   1.426       .  A
C467        F473   1.356       .  S
C468        C469   1.421       .  A
C469        C470   1.401       .  A
C469        F472   1.357       .  S
C470        F474   1.358       .  S
C477        C478   1.410       .  A
C477        C482   1.403       .  A
C477        F495   1.357       .  S
C478        C483   1.505       .  S
C478        C479   1.406       .  A
C479        C480   1.392       .  A
C479        F484   1.358       .  S
C480        C481   1.424       .  A
C480        F496   1.352       .  S
C481        C482   1.424       .  A
C482        F485   1.357       .  S
C483        C486   1.409       .  A
C483        C490   1.407       .  A
C486        C487   1.398       .  A
C486        F491   1.358       .  S
C487        C488   1.421       .  A
C487        F493   1.352       .  S
C488        C489   1.424       .  A
C489        C490   1.398       .  A
C489        F492   1.356       .  S
C490        F494   1.357       .  S
C497        C498   1.401       .  A
C497        C502   1.393       .  A
C497        F515   1.359       .  S
C498        C503   1.493       .  S
C498        C499   1.406       .  A
C499        C500   1.406       .  A
C499        F504   1.358       .  S
C500        C501   1.423       .  A
C500        F516   1.358       .  S
C501        C502   1.426       .  A
C502        F505   1.355       .  S
C503        C506   1.402       .  A
C503        C510   1.405       .  A
C506        C507   1.401       .  A
C506        F511   1.358       .  S
C507        C508   1.427       .  A
C507        F513   1.356       .  S
C508        C509   1.420       .  A
C509        C510   1.399       .  A
C509        F512   1.356       .  S
C510        F514   1.358       .  S
C517        C518   1.397       .  A
C517        C522   1.401       .  A
C517        F535   1.358       .  S
C518        C523   1.477       .  S
C518        C519   1.396       .  A
C519        C520   1.397       .  A
C519        F524   1.358       .  S
C520        C521   1.423       .  A
C520        F536   1.355       .  S
C521        C522   1.428       .  A
C522        F525   1.356       .  S
C523        C526   1.398       .  A
C523        C530   1.396       .  A
C526        C527   1.400       .  A
C526        F531   1.358       .  S
C527        C528   1.422       .  A
C527        F533   1.357       .  S
C528        C529   1.428       .  A
C529        C530   1.398       .  A
C529        F532   1.356       .  S
C530        F534   1.358       .  S
C537        C538   1.398       .  A
C537        C542   1.396       .  A
C537        F555   1.358       .  S
C538        C543   1.483       .  S
C538        C539   1.402       .  A
C539        C540   1.402       .  A
C539        F544   1.358       .  S
C540        C541   1.422       .  A
C540        F556   1.357       .  S
C541        C542   1.425       .  A
C542        F545   1.356       .  S
C543        C546   1.401       .  A
C543        C550   1.399       .  A
C546        C547   1.397       .  A
C546        F551   1.358       .  S
C547        C548   1.422       .  A
C547        F553   1.357       .  S
C548        C549   1.428       .  A
C549        C550   1.400       .  A
C549        F552   1.355       .  S
C550        F554   1.358       .  S
C557        C558   1.402       .  A
C557        C562   1.400       .  A
C557        F575   1.358       .  S
C558        C563   1.487       .  S
C558        C559   1.402       .  A
C559        C560   1.397       .  A
C559        F564   1.358       .  S
C560        C561   1.425       .  A
C560        F576   1.356       .  S
C561        C562   1.421       .  A
C562        F565   1.356       .  S
C563        C566   1.402       .  A
C563        C570   1.402       .  A
C566        C567   1.398       .  A
C566        F571   1.358       .  S
C567        C568   1.422       .  A
C567        F573   1.356       .  S
C568        C569   1.424       .  A
C569        C570   1.398       .  A
C569        F572   1.355       .  S
C570        F574   1.358       .  S
C577        C578   1.404       .  A
C577        C582   1.402       .  A
C577        F595   1.358       .  S
C578        C583   1.482       .  S
C578        C579   1.404   1_565  A
C579        C580   1.398       .  A
C579        F584   1.358       .  S
C580        C581   1.410   1_545  A
C580        F596   1.358       .  S
C581        C582   1.412       .  A
C582        F585   1.358       .  S
C583        C586   1.401   1_565  A
C583        C590   1.399       .  A
C586        C587   1.399       .  A
C586        F591   1.358       .  S
C587        C588   1.422   1_545  A
C587        F593   1.356       .  S
C588        C589   1.424       .  A
C589        C590   1.398       .  A
C589        F592   1.356       .  S
C590        F594   1.358       .  S
C597        C598   1.395       .  A
C597        C602   1.395       .  A
C597        F615   1.359       .  S
C598        C603   1.472       .  S
C598        C599   1.398       .  A
C599        C600   1.399       .  A
C599        F604   1.358       .  S
C600        C601   1.422       .  A
C600        F616   1.356       .  S
C601        C602   1.428       .  A
C602        F605   1.356       .  S
C603        C606   1.401   1_545  A
C603        C610   1.401       .  A
C606        C607   1.397       .  A
C606        F611   1.358       .  S
C607        C608   1.412   1_565  A
C607        F613   1.358       .  S
C608        C609   1.412       .  A
C609        C610   1.399       .  A
C609        F612   1.358       .  S
C610        F614   1.358       .  S
C617        C618   1.405   1_565  A
C617        C622   1.398       .  A
C617        F635   1.358       .  S
C618        C623   1.483       .  S
C618        C619   1.404       .  A
C619        C620   1.403       .  A
C619        F624   1.358       .  S
C620        C621   1.412       .  A
C620        F636   1.358       .  S
C621        C622   1.408   1_545  A
C622        F625   1.358       .  S
C623        C626   1.399   1_545  A
C623        C630   1.401       .  A
C626        C627   1.397       .  A
C626        F631   1.358       .  S
C627        C628   1.424   1_565  A
C627        F633   1.355       .  S
C628        C629   1.424       .  A
C629        C630   1.402       .  A
C629        F632   1.358       .  S
C630        F634   1.358       .  S
C637        C638   1.395       .  A
C637        C642   1.393       .  A
C637        F655   1.359       .  S
C638        C643   1.476       .  S
C638        C639   1.399       .  A
C639        C640   1.402       .  A
C639        F644   1.358       .  S
C640        C641   1.425       .  A
C640        F656   1.358       .  S
C641        C642   1.430       .  A
C642        F645   1.355       .  S
C643        C646   1.405       .  A
C643        C650   1.403   1_565  A
C646        C647   1.397       .  A
C646        F651   1.358       .  S
C647        C648   1.407       .  A
C647        F653   1.358       .  S
C648        C649   1.408   1_565  A
C649        C650   1.398       .  A
C649        F652   1.358       .  S
C650        F654   1.358       .  S
C657        C658   1.408       .  A
C657        C662   1.403       .  A
C657        F675   1.358       .  S
C658        C663   1.486       .  S
C658        C659   1.405   1_655  A
C659        C660   1.396       .  A
C659        F664   1.358       .  S
C660        C661   1.408   1_455  A
C660        F676   1.358       .  S
C661        C662   1.409       .  A
C662        F665   1.358       .  S
C663        C666   1.400       .  A
C663        C670   1.402   1_655  A
C666        C667   1.398       .  A
C666        F671   1.358       .  S
C667        C668   1.424   1_655  A
C667        F673   1.357       .  S
C668        C669   1.425       .  A
C669        C670   1.398       .  A
C669        F672   1.355       .  S
C670        F674   1.358       .  S
C677        C678   1.402       .  A
C677        C682   1.398       .  A
C677        F695   1.358       .  S
C678        C683   1.493   1_455  S
C678        C679   1.404   1_455  A
C679        C680   1.402       .  A
C679        F684   1.358       .  S
C680        C681   1.425   1_655  A
C680        F696   1.355       .  S
C681        C682   1.423       .  A
C682        F685   1.357       .  S
C683        C686   1.408   1_655  A
C683        C690   1.408       .  A
C686        C687   1.402       .  A
C686        F691   1.358       .  S
C687        C688   1.410   1_455  A
C687        F693   1.358       .  S
C688        C689   1.410       .  A
C689        C690   1.401       .  A
C689        F692   1.358       .  S
C690        F694   1.358       .  S
C697        C698   1.407   1_655  A
C697        C702   1.401       .  A
C697        F715   1.358       .  S
C698        C703   1.489       .  S
C698        C699   1.406       .  A
C699        C700   1.402       .  A
C699        F704   1.358       .  S
C700        C701   1.409       .  A
C700        F716   1.358       .  S
C701        C702   1.408   1_455  A
C702        F705   1.358       .  S
C703        C706   1.399   1_455  A
C703        C710   1.403       .  A
C706        C707   1.397       .  A
C706        F711   1.358       .  S
C707        C708   1.424   1_655  A
C707        F713   1.357       .  S
C708        C709   1.426       .  A
C709        C710   1.404       .  A
C709        F712   1.354       .  S
C710        F714   1.358       .  S
C717        C718   1.407   1_455  A
C717        C722   1.402       .  A
C717        F735   1.358       .  S
C718        C723   1.487       .  S
C718        C719   1.406       .  A
C719        C720   1.400       .  A
C719        F724   1.358       .  S
C720        C721   1.408       .  A
C720        F736   1.358       .  S
C721        C722   1.408   1_655  A
C722        F725   1.358       .  S
C723        C726   1.400   1_655  A
C723        C730   1.402       .  A
C726        C727   1.398       .  A
C726        F731   1.358       .  S
C727        C728   1.424   1_455  A
C727        F733   1.357       .  S
C728        C729   1.424       .  A
C729        C730   1.400       .  A
C729        F732   1.355       .  S
C730        F734   1.358       .  S
C737        C738   1.405       .  A
C737        C742   1.396       .  A
C737        F755   1.358       .  S
C738        C743   1.482       .  S
C738        C739   1.407       .  A
C739        C740   1.399       .  A
C739        F744   1.358       .  S
C740        C741   1.408       .  A
C740        F756   1.358       .  S
C741        C742   1.409       .  A
C742        F745   1.358       .  S
C743        C746   1.402       .  A
C743        C750   1.400       .  A
C746        C747   1.398       .  A
C746        F751   1.358       .  S
C747        C748   1.424       .  A
C747        F753   1.355       .  S
C748        C749   1.423       .  A
C749        C750   1.394       .  A
C749        F752   1.357       .  S
C750        F754   1.358       .  S
C757        C758   1.407       .  A
C757        C762   1.401       .  A
C757        F775   1.358       .  S
C758        C763   1.484       .  S
C758        C759   1.406       .  A
C759        C760   1.398       .  A
C759        F764   1.358       .  S
C760        C761   1.408       .  A
C760        F776   1.358       .  S
C761        C762   1.407       .  A
C762        F765   1.358       .  S
C763        C766   1.399       .  A
C763        C770   1.401       .  A
C766        C767   1.398       .  A
C766        F771   1.358       .  S
C767        C768   1.424       .  A
C767        F773   1.357       .  S
C768        C769   1.425       .  A
C769        C770   1.399       .  A
C769        F772   1.355       .  S
C770        F774   1.358       .  S
C777        C778   1.406       .  A
C777        C782   1.399       .  A
C777        F795   1.358       .  S
C778        C783   1.483       .  S
C778        C779   1.405       .  A
C779        C780   1.398       .  A
C779        F784   1.358       .  S
C780        C781   1.409       .  A
C780        F796   1.358       .  S
C781        C782   1.409       .  A
C782        F785   1.358       .  S
C783        C786   1.401       .  A
C783        C790   1.399       .  A
C786        C787   1.401       .  A
C786        F791   1.358       .  S
C787        C788   1.426       .  A
C787        F793   1.353       .  S
C788        C789   1.424       .  A
C789        C790   1.393       .  A
C789        F792   1.358       .  S
C790        F794   1.358       .  S
C797        C798   1.404       .  A
C797        C802   1.398       .  A
C797        F815   1.358       .  S
C798        C803   1.483       .  S
C798        C799   1.407       .  A
C799        C800   1.399       .  A
C799        F804   1.358       .  S
C800        C801   1.408       .  A
C800        F816   1.358       .  S
C801        C802   1.411       .  A
C802        F805   1.358       .  S
C803        C806   1.401       .  A
C803        C810   1.398       .  A
C806        C807   1.399       .  A
C806        F811   1.358       .  S
C807        C808   1.426       .  A
C807        F813   1.353       .  S
C808        C809   1.429       .  A
C809        C810   1.396       .  A
C809        F812   1.358       .  S
C810        F814   1.358       .  S
