geometry optimzed in LAMMPS
_audit_creation_date              2020-11-30 
_audit_creation_method            'lammps2cif' 
_symmetry_space_group_name_H-M    'P1' 
_symmetry_Int_Tables_number       1 
_symmetry_cell_setting            triclinic 
loop_ 
_symmetry_equiv_pos_as_xyz 
  x,y,z 
_cell_length_a                    25.89001683 
_cell_length_b                    52.50026299595517 
_cell_length_c                    31.495824895404013 
_cell_angle_alpha                 89.58036997260986 
_cell_angle_beta                  90.68173850807126 
_cell_angle_gamma                 88.57491955275718 
loop_ 
_atom_site_label 
_atom_site_type_symbol 
_atom_site_fract_x 
_atom_site_fract_y 
_atom_site_fract_z 
_atom_site_charge 
C1          C  0.99797588  0.46563877  0.44963035     0.86500
C2          C  0.04660484  0.44885191  0.44161770    -0.53700
C3          C  0.04513177  0.43505760  0.40499772     0.09500
C4          C  0.99607805  0.44042647  0.37807751     0.20400
C5          C  0.99525955  0.48288826  0.40920697    -0.54400
C6          C  0.99462148  0.46953237  0.37167218     0.09600
C7          C  0.95183369  0.44820554  0.44439244    -0.54000
C8          C  0.95097565  0.43447327  0.40786321     0.10100
H9          H  0.07930352  0.44769023  0.46351744     0.14600
H10         H  0.99555381  0.43014768  0.34750271     0.00400
H11         H  0.99643315  0.50350840  0.40972303     0.15000
H12         H  0.92143620  0.44758906  0.46765958     0.14700
C13         C  0.00907702  0.51496961  0.19929327     0.86500
C14         C  0.96399770  0.53446473  0.19519736    -0.53700
C15         C  0.96141941  0.54751121  0.15758884     0.09500
C16         C  0.00626934  0.54099452  0.12760703     0.20400
C17         C  0.00534014  0.49843060  0.15865811    -0.54400
C18         C  0.00324520  0.51195528  0.12070555     0.09600
C19         C  0.05696874  0.53132650  0.19135251    -0.54000
C20         C  0.05508586  0.54495517  0.15443771     0.10100
H21         H  0.93703502  0.53804152  0.22070209     0.14600
H22         H  0.00624206  0.55261520  0.09810211     0.00400
H23         H  0.00355136  0.47783016  0.16033336     0.15000
H24         H  0.08878163  0.53398403  0.21317465     0.14700
O25         O  0.73696785  0.18213713  0.06402039    -0.57800
C26         C  0.77076078  0.19915643  0.17838938     0.74900
O27         O  0.75335449  0.11893316  0.09024269    -0.58900
C28         C  0.77400138  0.19335829  0.04671625     0.74800
C29         C  0.89780412  0.14341118  0.12586743     0.77200
Cd30       Cd  0.78975262  0.15914744  0.11788374     1.37500
O31         O  0.76559975  0.20197342  0.13885909    -0.57800
O32         O  0.87305170  0.14253251  0.09100401    -0.56600
C33         C  0.71602708  0.11831829  0.11573609     0.77200
O34         O  0.87125458  0.14959301  0.15782654    -0.58900
O35         O  0.78438367  0.17694961  0.19109541    -0.57400
O36         O  0.81882877  0.18651623  0.05947627    -0.57400
O37         O  0.71489059  0.13540932  0.14374248    -0.56600
O38         O  0.76311807  0.29924434  0.42202670    -0.57800
C39         C  0.74538439  0.28327389  0.29529229     0.74900
O40         O  0.63960046  0.33232387  0.39352900    -0.58900
C41         C  0.73319151  0.28068296  0.42490781     0.74800
C42         C  0.79294218  0.36069773  0.36957124     0.77200
Cd43       Cd  0.72107357  0.31951224  0.36022526     1.37500
O44         O  0.77461673  0.28660101  0.32700363    -0.57800
O45         O  0.76742221  0.35177292  0.39997477    -0.56600
C46         C  0.61510440  0.33836288  0.35984405     0.77200
O47         O  0.78299470  0.35165552  0.33329422    -0.58900
O48         O  0.70756384  0.29887830  0.29094456    -0.57400
O49         O  0.69496043  0.28115635  0.39946784    -0.57400
O50         O  0.64085489  0.33724400  0.32594383    -0.56600
O51         O  0.20455904  0.20425001  0.16718279    -0.57800
C52         C  0.24439156  0.20641205  0.06298446     0.74900
O53         O  0.27925243  0.12960522  0.14874473    -0.58900
C54         C  0.23952174  0.20079950  0.19513731     0.74800
C55         C  0.12092076  0.14825516  0.12489166     0.77200
Cd56       Cd  0.22562446  0.16716353  0.12476371     1.37500
O57         O  0.27585744  0.20084967  0.09275340    -0.57800
O58         O  0.14526037  0.15290372  0.15894360    -0.56600
C59         C  0.30313143  0.12685681  0.11419626     0.77200
O60         O  0.14654020  0.15064052  0.09123282    -0.58900
O61         O  0.20421409  0.19316239  0.06079157    -0.57400
O62         O  0.26620582  0.18035880  0.19230398    -0.57400
O63         O  0.28933323  0.14199533  0.08453913    -0.56600
O64         O  0.23134707  0.29870186  0.42200376    -0.57800
C65         C  0.27668820  0.28322682  0.31195195     0.74900
O66         O  0.25465205  0.36346397  0.40044880    -0.58900
C67         C  0.26619074  0.28878456  0.44560112     0.74800
C68         C  0.39301486  0.33958874  0.36419715     0.77200
Cd69       Cd  0.28931748  0.32177553  0.37498813     1.37500
O70         O  0.30511557  0.27961182  0.34444008    -0.57800
O71         O  0.36314404  0.33605139  0.33281769    -0.56600
C72         C  0.21505149  0.36370303  0.37646370     0.77200
O73         O  0.37318563  0.33681196  0.40044672    -0.58900
O74         O  0.25725526  0.30543002  0.30708781    -0.57400
O75         O  0.31156888  0.29611703  0.43884468    -0.57400
O76         O  0.21147655  0.34534608  0.35097075    -0.56600
C77         C  0.48386350  0.96701473  0.28629912     0.86500
C78         C  0.43697233  0.94979553  0.29422275    -0.53700
C79         C  0.43868594  0.93680730  0.33199947     0.09500
C80         C  0.48756528  0.94141176  0.35855104     0.20400
C81         C  0.48563176  0.98385737  0.32663631    -0.54400
C82         C  0.48825916  0.97041120  0.36433791     0.09600
C83         C  0.53026627  0.94831529  0.29128489    -0.54000
C84         C  0.53232778  0.93496944  0.32861241     0.10100
H85         H  0.40594769  0.94647998  0.27195273     0.14600
H86         H  0.48937138  0.93045977  0.38888157     0.00400
H87         H  0.48380267  0.00450044  0.32563789     0.15000
H88         H  0.55862426  0.94527807  0.26656012     0.14700
C89         C  0.50606057  0.01801991  0.03640196     0.86500
C90         C  0.55536813  0.03340755  0.04546516    -0.53700
C91         C  0.55642339  0.04531569  0.08377873     0.09500
C92         C  0.50704586  0.04199668  0.10947094     0.20400
C93         C  0.50177439  0.00041153  0.07610030    -0.54400
C94         C  0.50148719  0.01307699  0.11432233     0.09600
C95         C  0.46247113  0.03817411  0.04146122    -0.54000
C96         C  0.46297784  0.05071992  0.07926482     0.10100
H97         H  0.58533439  0.03713011  0.02304329     0.14600
H98         H  0.50711209  0.05233751  0.14013161     0.00400
H99         H  0.49907995  0.97986972  0.07393115     0.15000
H100        H  0.43326437  0.04205770  0.01709167     0.14700
O101        O  0.69234739  0.69973204  0.16278411    -0.57800
C102        C  0.74170006  0.70148014  0.05544171     0.74900
O103        O  0.76302525  0.62457973  0.14903273    -0.58900
C104        C  0.73061110  0.69921620  0.18806944     0.74800
C105        C  0.61902910  0.64425101  0.11749384     0.77200
Cd106      Cd  0.72239384  0.66386854  0.11981559     1.37500
O107        O  0.77212411  0.69701342  0.08633751    -0.57800
O108        O  0.64235190  0.64963024  0.15171156    -0.56600
C109        C  0.80024338  0.62350294  0.12342391     0.77200
O110        O  0.64540917  0.64602959  0.08399972    -0.58900
O111        O  0.70277620  0.68738013  0.05264296    -0.57400
O112        O  0.76252045  0.68082244  0.18401623    -0.57400
O113        O  0.79956926  0.64003943  0.09405169    -0.56600
O114        O  0.78719589  0.77789819  0.40026460    -0.57800
C115        C  0.75702980  0.78308089  0.30355834     0.74900
O116        O  0.72288682  0.85656165  0.39333209    -0.58900
C117        C  0.76505450  0.78268369  0.43476539     0.74800
C118        C  0.88320295  0.83621670  0.36489768     0.77200
Cd119      Cd  0.77721912  0.81982330  0.36759346     1.37500
O120        O  0.80108412  0.79275166  0.30804768    -0.57800
O121        O  0.86101622  0.83124549  0.39948289    -0.56600
C122        C  0.69978473  0.86084143  0.35824768     0.77200
O123        O  0.85458506  0.83608151  0.33213640    -0.58900
O124        O  0.72165546  0.79175311  0.32718989    -0.57400
O125        O  0.74998389  0.80562976  0.43976210    -0.57400
O126        O  0.71439321  0.84702116  0.32772809    -0.56600
O127        O  0.23370667  0.68397964  0.07154553    -0.57800
C128        C  0.27862643  0.69962925  0.18153896     0.74900
O129        O  0.24126890  0.62128405  0.09490262    -0.58900
C130        C  0.27063743  0.69288282  0.05053574     0.74800
C131        C  0.39632517  0.64198052  0.12220022     0.77200
Cd132      Cd  0.28910840  0.65890117  0.12084713     1.37500
O133        O  0.30224115  0.67897358  0.19134417    -0.57800
O134        O  0.37193487  0.64768122  0.15546886    -0.56600
C135        C  0.21537420  0.61836871  0.12827968     0.77200
O136        O  0.36968775  0.64221061  0.08818163    -0.58900
O137        O  0.25910701  0.70064366  0.14466503    -0.57400
O138        O  0.31537774  0.68411433  0.05970455    -0.57400
O139        O  0.22564356  0.63335428  0.15826483    -0.56600
O140        O  0.20275562  0.79840402  0.29204008    -0.57800
C141        C  0.21381368  0.78042427  0.42664656     0.74900
O142        O  0.24824348  0.85992916  0.33745828    -0.58900
C143        C  0.24393174  0.78490504  0.29426283     0.74800
C144        C  0.10702568  0.83474760  0.36336942     0.77200
Cd145      Cd  0.21437077  0.81864319  0.36136238     1.37500
O146        O  0.20885748  0.77555629  0.38766272    -0.57800
O147        O  0.12934066  0.82921001  0.32894859    -0.56600
C148        C  0.28846536  0.85908145  0.36066394     0.77200
O149        O  0.13575917  0.83479137  0.39612385    -0.58900
O150        O  0.21832165  0.80369316  0.43619296    -0.57400
O151        O  0.27310630  0.78866900  0.32597929    -0.57400
O152        O  0.29329087  0.84015746  0.38551070    -0.56600
C153        C  0.23271351  0.73527507  0.44430496    -0.20300
C154        C  0.21620967  0.75945810  0.45831445    -0.06800
C155        C  0.20294939  0.76268441  0.50134856     0.14000
C156        C  0.22163819  0.73159711  0.02708766    -0.20300
C157        C  0.26222226  0.71399521  0.01967935    -0.06800
C158        C  0.23922727  0.71460022  0.47237149     0.14000
C159        C  0.33773146  0.69911891  0.97387796    -0.23700
H160        H  0.24213913  0.73264351  0.41115728     0.15300
H161        H  0.19602987  0.72841759  0.05348544     0.15300
C162        C  0.18196197  0.78770443  0.51790745    -0.23600
H163        H  0.26084500  0.68993412  0.41969942     0.05600
H164        H  0.32098144  0.68005137  0.96926168     0.08800
H165        H  0.36778643  0.69807938  0.99925559     0.08800
H166        H  0.14699263  0.79376590  0.49933295     0.08800
H167        H  0.21170585  0.80248430  0.51556060     0.08800
H168        H  0.14642076  0.76441780  0.03862484     0.05500
C169        C  0.24390451  0.74306267  0.19616204    -0.20300
C170        C  0.27324706  0.72171015  0.21064096    -0.06800
C171        C  0.29643994  0.72240885  0.25158887     0.14000
C172        C  0.28742760  0.74376343  0.27728715    -0.20300
C173        C  0.25604226  0.76450329  0.26341870    -0.06800
C174        C  0.23500335  0.76437286  0.22182769     0.14000
C175        C  0.20384492  0.78666404  0.20378399    -0.23700
H176        H  0.22703090  0.74306086  0.16450158     0.15300
H177        H  0.30396575  0.74390675  0.30907076     0.15300
C178        C  0.33069067  0.70098036  0.26876756    -0.23600
H179        H  0.19407076  0.78397483  0.16969825     0.05600
H180        H  0.22635601  0.80432564  0.20643210     0.08800
H181        H  0.16688770  0.78896198  0.22096046     0.10800
H182        H  0.36423616  0.69791867  0.24759611     0.08800
H183        H  0.30843144  0.68324776  0.27127318     0.08800
H184        H  0.34611865  0.70521032  0.30094768     0.05500
C185        C  0.96777144  0.84044754  0.40192110    -0.20300
C186        C  0.94003989  0.84031584  0.36328973    -0.06800
C187        C  0.96798992  0.84142089  0.32482129     0.14000
C188        C  0.02229764  0.84123209  0.32631639    -0.20300
C189        C  0.05000793  0.83948464  0.36493349    -0.06800
C190        C  0.02203151  0.83980220  0.40341144     0.14000
C191        C  0.04834435  0.83842797  0.44639645    -0.23700
H192        H  0.94684418  0.83992755  0.43148978     0.15300
H193        H  0.04331467  0.84138141  0.29676860     0.15300
C194        C  0.94163064  0.84185441  0.28184527    -0.23600
H195        H  0.02014235  0.83905102  0.47269674     0.05600
H196        H  0.07401036  0.85489030  0.45034641     0.08800
H197        H  0.07103897  0.82028597  0.44972337     0.08800
H198        H  0.91484478  0.85864936  0.27923752     0.08800
H199        H  0.92011596  0.82404448  0.27716001     0.08800
H200        H  0.96973774  0.84320484  0.25559490     0.05500
C201        C  0.53811036  0.63709173  0.15688452    -0.20300
C202        C  0.56300136  0.63804700  0.11747395    -0.06800
C203        C  0.53260578  0.63596978  0.07993702     0.14000
C204        C  0.47846671  0.63532718  0.08296293    -0.20300
C205        C  0.45341023  0.63714511  0.12226338    -0.06800
C206        C  0.48406213  0.63693813  0.15991552     0.14000
C207        C  0.46079460  0.63744826  0.20361658    -0.23700
H208        H  0.56097782  0.63792840  0.18585730     0.15300
H209        H  0.45546207  0.63487531  0.05402225     0.15300
C210        C  0.55613293  0.63540356  0.03638863    -0.23600
H211        H  0.49078640  0.63572837  0.22905701     0.05600
H212        H  0.43441697  0.62125681  0.20743018     0.08800
H213        H  0.43952328  0.65577971  0.20857036     0.08800
H214        H  0.58452393  0.61926989  0.03438457     0.08800
H215        H  0.57531669  0.65365597  0.02977180     0.08800
H216        H  0.52653643  0.63282014  0.01106070     0.05500
C217        C  0.70645007  0.73574412  0.00805795    -0.20300
C218        C  0.74996532  0.72287076  0.02554215    -0.06800
C219        C  0.79985917  0.73151109  0.01577421     0.14000
C220        C  0.74712309  0.76986778  0.50908625    -0.20300
C221        C  0.75698819  0.76249776  0.46720608    -0.06800
C222        C  0.75778918  0.73615734  0.45718954     0.14000
C223        C  0.76723135  0.72656009  0.41280889    -0.23700
H224        H  0.66825192  0.72917399  0.01559564     0.15300
H225        H  0.74676987  0.78994272  0.51687077     0.15300
C226        C  0.84834998  0.71809056  0.03223523    -0.23600
H227        H  0.76409376  0.70553906  0.41080932     0.05600
H228        H  0.80680467  0.73129784  0.40272655     0.08800
H229        H  0.73819994  0.73520251  0.39042875     0.08800
H230        H  0.84799329  0.69764321  0.02347906     0.08800
H231        H  0.85122689  0.71992474  0.06724451     0.08800
H232        H  0.88368702  0.72637298  0.01871050     0.05500
C233        C  0.79212176  0.74744222  0.26110874    -0.20300
C234        C  0.74865737  0.76188913  0.27372304    -0.06800
C235        C  0.69911229  0.75526468  0.25853285     0.14000
C236        C  0.69457790  0.73426425  0.23161692    -0.20300
C237        C  0.73802792  0.71970154  0.21934186    -0.06800
C238        C  0.78763485  0.72655473  0.23404914     0.14000
C239        C  0.83637740  0.71273359  0.22032283    -0.23700
H240        H  0.83011069  0.75245078  0.27265145     0.15300
H241        H  0.65668817  0.72928177  0.21979801     0.15300
C242        C  0.65093349  0.77051138  0.26924564    -0.23600
H243        H  0.87159030  0.72154922  0.23355610     0.05600
H244        H  0.83916490  0.71331457  0.18516635     0.08800
H245        H  0.83639544  0.69267144  0.23166348     0.08800
H246        H  0.65556349  0.79076520  0.25994656     0.08800
H247        H  0.64327821  0.76907876  0.30375382     0.08800
H248        H  0.61636123  0.76345463  0.25222304     0.05500
C249        C  0.60529027  0.91761907  0.37314296    -0.20300
C250        C  0.57268688  0.91497571  0.33765447    -0.06800
C251        C  0.58073363  0.89403175  0.31034397     0.14000
C252        C  0.62308330  0.87734089  0.31761778    -0.20300
C253        C  0.65669548  0.88009382  0.35262768    -0.06800
C254        C  0.64707533  0.90044416  0.38115605     0.14000
C255        C  0.68102681  0.90465528  0.41951045    -0.23700
H256        H  0.59850042  0.93348351  0.39435314     0.15300
H257        H  0.62890415  0.86150347  0.29613223     0.15300
C258        C  0.54438271  0.88802187  0.27417084    -0.23600
H259        H  0.66896391  0.92204043  0.43708007     0.05600
H260        H  0.72163280  0.90698369  0.40952393     0.08800
H261        H  0.67865039  0.88824574  0.44175007     0.08800
H262        H  0.50949363  0.90064226  0.27279111     0.08800
H263        H  0.53071767  0.86825999  0.27799737     0.08800
H264        H  0.56498973  0.88953269  0.24358139     0.05500
C265        C  0.41671908  0.89264572  0.35214264    -0.20300
C266        C  0.39969961  0.91775004  0.34362491    -0.06800
C267        C  0.34622000  0.92388130  0.34477184     0.14000
C268        C  0.31097056  0.90438377  0.35141022    -0.20300
C269        C  0.32779618  0.87904162  0.35804563    -0.06800
C270        C  0.38150729  0.87318085  0.35938254     0.14000
C271        C  0.40199832  0.84631836  0.36624931    -0.23700
H272        H  0.45778437  0.88807753  0.35164766     0.15300
H273        H  0.26989332  0.90893670  0.35128501     0.15300
C274        C  0.32613742  0.95099706  0.34048820    -0.23600
H275        H  0.44481345  0.84512210  0.36440040     0.05600
H276        H  0.38599949  0.83364174  0.34155170     0.08800
H277        H  0.39106723  0.83937795  0.39818969     0.08800
H278        H  0.33347630  0.95862295  0.30831282     0.08800
H279        H  0.34528392  0.96305390  0.36452019     0.08800
H280        H  0.28379469  0.95244587  0.34561012     0.05500
C281        C  0.54436555  0.00565211  0.96321561    -0.20300
C282        C  0.50284927  0.00451347  0.99224628    -0.06800
C283        C  0.45751926  0.99197914  0.97764845     0.14000
C284        C  0.45249438  0.97848192  0.43681410    -0.20300
C285        C  0.49188503  0.98223835  0.40742372    -0.06800
C286        C  0.53614468  0.99513236  0.42081416     0.14000
C287        C  0.58103049  0.99839667  0.39134327    -0.23700
H288        H  0.58081045  0.01323391  0.97233899     0.15300
H289        H  0.41907375  0.96782084  0.42702399     0.15300
C290        C  0.41034256  0.98823336  0.00449308    -0.23600
H291        H  0.61377592  0.00797366  0.40711752     0.05600
H292        H  0.56869211  0.01024634  0.36361093     0.08800
H293        H  0.59527106  0.97952921  0.38017702     0.08800
H294        H  0.37647942  0.99811404  0.98919859     0.08800
H295        H  0.41381768  0.99543490  0.03715961     0.08800
H296        H  0.40245861  0.96758288  0.00687682     0.05500
C297        C  0.44712831  0.97810517  0.21083304    -0.20300
C298        C  0.48574816  0.98140975  0.24259294    -0.06800
C299        C  0.52862844  0.99656421  0.23102972     0.14000
C300        C  0.53315793  0.00569351  0.18888860    -0.20300
C301        C  0.49603235  0.00090041  0.15733494    -0.06800
C302        C  0.45171343  0.98755833  0.16897082     0.14000
C303        C  0.40802013  0.98397760  0.13764558    -0.23700
H304        H  0.41250024  0.96810478  0.21763350     0.15300
H305        H  0.56601613  0.01701467  0.18045530     0.15300
C306        C  0.56971193  0.00408513  0.26269846    -0.23600
H307        H  0.37480123  0.97444315  0.15238413     0.05600
H308        H  0.42132850  0.97195405  0.11094106     0.08800
H309        H  0.39401741  0.00278157  0.12518469     0.08800
H310        H  0.58896615  0.98723109  0.27777947     0.08800
H311        H  0.55248144  0.01650901  0.28725322     0.08800
H312        H  0.60048161  0.01519905  0.24746603     0.05500
C313        C  0.37888542  0.11105896  0.07368944    -0.20300
C314        C  0.34558234  0.10754486  0.10810681    -0.06800
C315        C  0.35390626  0.08594930  0.13495980     0.14000
C316        C  0.39339990  0.06805871  0.12532130    -0.20300
C317        C  0.42464077  0.07112374  0.08969267    -0.06800
C318        C  0.41845196  0.09332043  0.06437336     0.14000
C319        C  0.45441200  0.09884668  0.02827395    -0.23700
H320        H  0.37401962  0.12788745  0.05375362     0.15300
H321        H  0.39915223  0.05121137  0.14511151     0.15300
C322        C  0.32076276  0.08110859  0.17303657    -0.23600
H323        H  0.44627329  0.11795554  0.01400122     0.05600
H324        H  0.45005253  0.08465936  0.00271170     0.08800
H325        H  0.49501747  0.09836376  0.04000721     0.08800
H326        H  0.27967725  0.07985549  0.16294176     0.08800
H327        H  0.32506987  0.09670011  0.19632778     0.08800
H328        H  0.33197845  0.06296077  0.18942981     0.05500
C329        C  0.21200786  0.24040696  0.23137907    -0.20300
C330        C  0.24890190  0.22045267  0.22785435    -0.06800
C331        C  0.29459806  0.22107643  0.25305691     0.14000
C332        C  0.30252516  0.24195235  0.27977688    -0.20300
C333        C  0.26631543  0.26225396  0.28209667    -0.06800
C334        C  0.21988541  0.26118572  0.25810776     0.14000
C335        C  0.17759417  0.28136808  0.26117374    -0.23700
H336        H  0.17660282  0.23991789  0.21273068     0.15300
H337        H  0.33769022  0.24254875  0.29873349     0.15300
C338        C  0.33573458  0.20026053  0.25176847    -0.23600
H339        H  0.14301232  0.27657805  0.24189437     0.05600
H340        H  0.19150811  0.29987742  0.24922535     0.08800
H341        H  0.16524974  0.28327734  0.29467382     0.08800
H342        H  0.35143785  0.19870553  0.21922073     0.08800
H343        H  0.31923557  0.18185195  0.26163982     0.08800
H344        H  0.36857300  0.20409649  0.27363177     0.05500
C345        C  0.21016849  0.24111335  0.01608630    -0.20300
C346        C  0.25326404  0.22771448  0.03308942    -0.06800
C347        C  0.30339553  0.23518782  0.02171391     0.14000
C348        C  0.29681806  0.25989152  0.50386282    -0.20300
C349        C  0.25555982  0.26881537  0.47794287    -0.06800
C350        C  0.20697273  0.25705096  0.48141600     0.14000
C351        C  0.16038120  0.26542958  0.45517714    -0.23700
H352        H  0.17178679  0.23554398  0.02525401     0.15300
H353        H  0.33405463  0.26875898  0.50150354     0.15300
C354        C  0.35143477  0.22131315  0.03804728    -0.23600
H355        H  0.12587832  0.25414474  0.46268404     0.05600
H356        H  0.16837406  0.26282706  0.42091003     0.08800
H357        H  0.15043482  0.28570918  0.46166605     0.08800
H358        H  0.34954803  0.20074522  0.03035691     0.08800
H359        H  0.35524278  0.22374765  0.07289496     0.08800
H360        H  0.38699273  0.22875020  0.02354006     0.05500
C361        C  0.47723497  0.35100545  0.39647087    -0.20300
C362        C  0.44897996  0.34498073  0.35965735    -0.06800
C363        C  0.47602826  0.34153579  0.32110777     0.14000
C364        C  0.53038126  0.34125522  0.32174761    -0.20300
C365        C  0.55860697  0.34444347  0.35966726    -0.06800
C366        C  0.53146509  0.35094387  0.39700138     0.14000
C367        C  0.55894888  0.35776599  0.43769939    -0.23700
H368        H  0.45685484  0.35473325  0.42571951     0.15300
H369        H  0.55090969  0.33707842  0.29273211     0.15300
C370        C  0.44857945  0.33717263  0.27938327    -0.23600
H371        H  0.53150041  0.36470553  0.46212304     0.05600
H372        H  0.58651395  0.37319662  0.43149826     0.08800
H373        H  0.57977953  0.34083285  0.45129200     0.08800
H374        H  0.42145545  0.35340764  0.27228805     0.08800
H375        H  0.42722200  0.31911951  0.28067519     0.08800
H376        H  0.47601192  0.33567511  0.25261713     0.05500
C377        C  0.58449249  0.08780632  0.10739077    -0.20300
C378        C  0.59834144  0.06281889  0.09604959    -0.06800
C379        C  0.65138863  0.05555102  0.09463634     0.14000
C380        C  0.68901702  0.07392502  0.10210277    -0.20300
C381        C  0.67506438  0.09918509  0.11189862    -0.06800
C382        C  0.62204249  0.10611145  0.11509950     0.14000
C383        C  0.60456899  0.13310394  0.12422677    -0.23700
H384        H  0.54392956  0.09331158  0.10870207     0.15300
H385        H  0.72962709  0.06857362  0.10014369     0.15300
C386        C  0.66869992  0.02835379  0.08679754    -0.23600
H387        H  0.56179362  0.13535508  0.12328193     0.05600
H388        H  0.62039383  0.14623559  0.10011568     0.08800
H389        H  0.61797451  0.13865159  0.15636473     0.08800
H390        H  0.65912184  0.02259697  0.05395517     0.08800
H391        H  0.64974824  0.01548302  0.10964979     0.08800
H392        H  0.71116593  0.02574609  0.09098006     0.05500
C393        C  0.98154618  0.13704070  0.08916813    -0.20300
C394        C  0.95518722  0.13936621  0.12777907    -0.06800
C395        C  0.98473831  0.14042221  0.16593666     0.14000
C396        C  0.03892019  0.14161833  0.16385268    -0.20300
C397        C  0.06485551  0.14195756  0.12482771    -0.06800
C398        C  0.03558429  0.13847914  0.08701652     0.14000
C399        C  0.06014810  0.13704523  0.04388841    -0.23700
H400        H  0.95952763  0.13547784  0.05987298     0.15300
H401        H  0.06095603  0.14349404  0.19307904     0.15300
C402        C  0.96002027  0.14082689  0.20904899    -0.23600
H403        H  0.03142033  0.13318568  0.01840989     0.05600
H404        H  0.08970019  0.12135828  0.04357726     0.08800
H405        H  0.07805112  0.15544438  0.03597143     0.08800
H406        H  0.93514611  0.12404348  0.21273076     0.08800
H407        H  0.93675508  0.15866702  0.21297181     0.08800
H408        H  0.98931351  0.14005813  0.23511769     0.05500
C409        C  0.79511154  0.23539526  0.50742425    -0.20300
C410        C  0.76600499  0.21432479  0.01508490    -0.06800
C411        C  0.71824021  0.22791857  0.00992592     0.14000
C412        C  0.70668369  0.23953927  0.45651913    -0.20300
C413        C  0.74281274  0.25910409  0.45515159    -0.06800
C414        C  0.78789533  0.25686009  0.48109442     0.14000
C415        C  0.82885876  0.27682281  0.48179864    -0.23700
H416        H  0.84565365  0.21226788  0.99619056     0.15300
H417        H  0.67228631  0.24098491  0.43662673     0.15300
C418        C  0.67044843  0.22096621  0.03391826    -0.23600
H419        H  0.86097687  0.27176781  0.50424043     0.05600
H420        H  0.81181647  0.29533916  0.49215804     0.08800
H421        H  0.84587225  0.27881021  0.44979352     0.08800
H422        H  0.67795977  0.22209645  0.06858457     0.08800
H423        H  0.65887050  0.20142454  0.02539050     0.08800
H424        H  0.63718980  0.23405040  0.02630932     0.05500
C425        C  0.78184738  0.21836482  0.24954102    -0.20300
C426        C  0.76275618  0.22087530  0.20781186    -0.06800
C427        C  0.73800997  0.24423949  0.19505175     0.14000
C428        C  0.73367016  0.26421176  0.22423706    -0.20300
C429        C  0.75369809  0.26182203  0.26562535    -0.06800
C430        C  0.77783735  0.23844010  0.27856832     0.14000
C431        C  0.79840608  0.23407305  0.32313155    -0.23700
H432        H  0.80068960  0.20060478  0.25950250     0.15300
H433        H  0.71461167  0.28197725  0.21453476     0.15300
C434        C  0.71508816  0.24845996  0.15119584    -0.23600
H435        H  0.81370425  0.21429415  0.32792691     0.05600
H436        H  0.76705897  0.23734059  0.34638938     0.08800
H437        H  0.83061859  0.24709284  0.32966356     0.08800
H438        H  0.68599687  0.23378382  0.14457591     0.08800
H439        H  0.74594981  0.24768699  0.12704556     0.08800
H440        H  0.69527431  0.26739920  0.14794707     0.05500
C441        C  0.12811273  0.56107522  0.11218171    -0.20300
C442        C  0.09319088  0.56479249  0.14534778    -0.06800
C443        C  0.09715564  0.58656225  0.17117875     0.14000
C444        C  0.13787437  0.60314080  0.16495152    -0.20300
C445        C  0.17391997  0.59935081  0.13244628    -0.06800
C446        C  0.16822724  0.57820789  0.10503364     0.14000
C447        C  0.20450326  0.57317012  0.06883500    -0.23700
H448        H  0.12447234  0.54442724  0.09229175     0.15300
H449        H  0.14068239  0.61958457  0.18542414     0.15300
C450        C  0.05853857  0.59334723  0.20504234    -0.23600
H451        H  0.19508878  0.55539686  0.05178427     0.05600
H452        H  0.24479075  0.57110191  0.08107720     0.08800
H453        H  0.20156898  0.58908123  0.04546368     0.08800
H454        H  0.02603876  0.58012187  0.20668363     0.08800
H455        H  0.04165586  0.61263721  0.19835210     0.08800
H456        H  0.07824007  0.59345999  0.23653506     0.05500
C457        C  0.93299705  0.59069637  0.13232534    -0.20300
C458        C  0.91958802  0.56651869  0.14721081    -0.06800
C459        C  0.86670015  0.56060739  0.15049284     0.14000
C460        C  0.82890170  0.57958875  0.14201840    -0.20300
C461        C  0.84218913  0.60399488  0.12842624    -0.06800
C462        C  0.89494294  0.60949915  0.12257812     0.14000
C463        C  0.91154381  0.63532458  0.10755095    -0.23700
H464        H  0.97347131  0.59500827  0.12894991     0.15300
H465        H  0.78846734  0.57527249  0.14569245     0.15300
C466        C  0.84941359  0.53408016  0.16082502    -0.23600
H467        H  0.95428221  0.63648308  0.10624268     0.05600
H468        H  0.89716334  0.65026571  0.12953751     0.08800
H469        H  0.89598502  0.63920962  0.07509578     0.08800
H470        H  0.85871673  0.52914527  0.19427823     0.08800
H471        H  0.86839262  0.52012563  0.13934123     0.08800
H472        H  0.80697992  0.53236279  0.15673618     0.05500
C473        C  0.12208442  0.37491548  0.37545209    -0.20300
C474        C  0.17294925  0.38316484  0.37973929    -0.06800
C475        C  0.18161876  0.40901630  0.38888771     0.14000
C476        C  0.13907117  0.42559385  0.39563853    -0.20300
C477        C  0.08800213  0.41711317  0.39297085    -0.06800
C478        C  0.07953627  0.39137671  0.38217768     0.14000
C479        C  0.02640936  0.38033502  0.38042306    -0.23700
H480        H  0.11555450  0.35506152  0.36843294     0.15300
H481        H  0.14577421  0.44526595  0.40370649     0.15300
C482        C  0.23534084  0.41937874  0.39059476    -0.23600
H483        H  0.00355389  0.38860019  0.35359104     0.05600
H484        H  0.00654796  0.38388731  0.41072351     0.08800
H485        H  0.02798944  0.35939221  0.37564963     0.08800
H486        H  0.25520892  0.41545478  0.36018858     0.08800
H487        H  0.25775360  0.41043488  0.41722392     0.08800
H488        H  0.23468162  0.44031027  0.39555604     0.05500
C489        C  0.85640105  0.37996759  0.41813052    -0.20300
C490        C  0.83358040  0.37974612  0.37748363    -0.06800
C491        C  0.85087447  0.39707745  0.34639392     0.14000
C492        C  0.88892847  0.41466401  0.35740826    -0.20300
C493        C  0.91071007  0.41531015  0.39845913    -0.06800
C494        C  0.89497872  0.39710801  0.42898918     0.14000
C495        C  0.91978751  0.39440484  0.47253946    -0.23700
H496        H  0.84442230  0.36625143  0.44171618     0.15300
H497        H  0.90149729  0.42813053  0.33376737     0.15300
C498        C  0.82901770  0.39754505  0.30185732    -0.23600
H499        H  0.90908781  0.37635662  0.48840745     0.05600
H500        H  0.90667433  0.41001495  0.49353130     0.08800
H501        H  0.96243672  0.39412333  0.47030377     0.08800
H502        H  0.78650640  0.40080007  0.30267192     0.08800
H503        H  0.83813094  0.37920214  0.28598310     0.08800
H504        H  0.84563074  0.41297056  0.28236089     0.05500
C505        C  0.97560352  0.50266255  0.49960452    -0.20300
C506        C  0.99715873  0.47799990  0.49432732    -0.06800
C507        C  0.01040535  0.46406213  0.53232987     0.14000
C508        C  0.02397633  0.47566708  0.07119935    -0.20300
C509        C  0.00063541  0.49979229  0.07703366    -0.06800
C510        C  0.97664620  0.51164590  0.04075033     0.14000
C511        C  0.93923149  0.53397799  0.04366049    -0.23700
H512        H  0.95965362  0.51283220  0.47229462     0.15300
H513        H  0.04133798  0.46573038  0.09823145     0.15300
C514        C  0.02213408  0.43572289  0.53409800    -0.23600
H515        H  0.90385144  0.53017690  0.02467247     0.05600
H516        H  0.95704901  0.55143471  0.03097744     0.08800
H517        H  0.92574967  0.53704773  0.07633764     0.08800
H518        H  0.06328346  0.43222080  0.54315523     0.08800
H519        H  0.01363862  0.42562420  0.50440821     0.08800
H520        H  0.99752103  0.42681721  0.55845821     0.05500
C521        C  0.95908183  0.47816970  0.29849699    -0.20300
C522        C  0.99898266  0.48123738  0.32830068    -0.06800
C523        C  0.04481829  0.49250208  0.31467909     0.14000
C524        C  0.04852108  0.50162741  0.27262375    -0.20300
C525        C  0.00714411  0.50043484  0.24277993    -0.06800
C526        C  0.96234548  0.48730032  0.25630642     0.14000
C527        C  0.91640693  0.48232016  0.22791277    -0.23700
H528        H  0.92453594  0.46862769  0.30831646     0.15300
H529        H  0.08484710  0.50942688  0.26401111     0.15300
C530        C  0.09089780  0.49423078  0.34413901    -0.23600
H531        H  0.91074267  0.46145833  0.22602582     0.05600
H532        H  0.91996941  0.48949375  0.19515023     0.08800
H533        H  0.88123747  0.49136300  0.24165088     0.08800
H534        H  0.10322160  0.47485073  0.35488178     0.08800
H535        H  0.08083501  0.50600108  0.37208759     0.08800
H536        H  0.12428214  0.50303775  0.32840465     0.05500
C537        C  0.00711348  0.46479502  0.94899787     0.86500
C538        C  0.05563272  0.44841263  0.93877378    -0.53700
C539        C  0.05282956  0.43489555  0.90180572     0.09500
C540        C  0.00213442  0.44023767  0.87688786     0.20400
C541        C  0.00163123  0.48236845  0.90905992    -0.54400
C542        C  0.99897960  0.46932725  0.87134731     0.09600
C543        C  0.96146204  0.44688262  0.94507266    -0.54000
C544        C  0.95911320  0.43360225  0.90809568     0.10100
H545        H  0.08979475  0.44773673  0.95894677     0.14600
H546        H  0.99976940  0.43054256  0.84595930     0.00400
H547        H  0.00223082  0.50300014  0.90996345     0.15000
H548        H  0.93269618  0.44537748  0.96964120     0.14700
C549        C  0.99836764  0.51586509  0.69951592     0.86500
C550        C  0.95241664  0.53498651  0.69615735    -0.53700
C551        C  0.94923186  0.54833832  0.65883164     0.09500
C552        C  0.99402343  0.54239321  0.62842555     0.20400
C553        C  0.99438059  0.49960270  0.65872937    -0.54400
C554        C  0.99195852  0.51331859  0.62093235     0.09600
C555        C  0.04539514  0.53282534  0.69165162    -0.54000
C556        C  0.04285281  0.54665400  0.65499294     0.10100
H557        H  0.92524483  0.53811346  0.72169026     0.14600
H558        H  0.99357893  0.55442995  0.59945055     0.00400
H559        H  0.99286302  0.47900394  0.66035907     0.15000
H560        H  0.07654268  0.53595877  0.71400815     0.14700
O561        O  0.74106951  0.17559139  0.54339724    -0.57800
C562        C  0.75621775  0.19786666  0.67825806     0.74900
O563        O  0.74470852  0.11816529  0.59472790    -0.58900
C564        C  0.76665981  0.19580592  0.54219191     0.74800
C565        C  0.88440456  0.14432661  0.61760584     0.77200
Cd566      Cd  0.77710686  0.16103437  0.61320217     1.37500
O567        O  0.72847591  0.19648570  0.64513598    -0.57800
O568        O  0.86050668  0.14761559  0.58258086    -0.56600
C569        C  0.70295628  0.12046066  0.61497713     0.77200
O570        O  0.85710845  0.14656704  0.65051498    -0.58900
O571        O  0.79190299  0.18104861  0.68265446    -0.57400
O572        O  0.79916559  0.19846299  0.57192162    -0.57400
O573        O  0.69751253  0.14051269  0.63648625    -0.56600
O574        O  0.77959722  0.28194123  0.89744978    -0.57800
C575        C  0.73775777  0.28165806  0.79622232     0.74900
O576        O  0.64720962  0.32922031  0.89797679    -0.58900
C577        C  0.74994429  0.27837119  0.92835121     0.74800
C578        C  0.80297695  0.35816026  0.87413527     0.77200
Cd579      Cd  0.72943118  0.31740269  0.86483708     1.37500
O580        O  0.77424274  0.29620290  0.80588279    -0.57800
O581        O  0.78676470  0.34518154  0.90498096    -0.56600
C582        C  0.62412940  0.33712969  0.86466030     0.77200
O583        O  0.78332908  0.35310817  0.83828744    -0.58900
O584        O  0.69595427  0.28534271  0.81583465    -0.57400
O585        O  0.71184713  0.29384462  0.93110639    -0.57400
O586        O  0.65127343  0.33792140  0.83145699    -0.56600
O587        O  0.19382562  0.20283966  0.66485665    -0.57800
C588        C  0.23440050  0.20524407  0.56343786     0.74900
O589        O  0.26450028  0.12602140  0.64494724    -0.58900
C590        C  0.22804196  0.19898048  0.69330817     0.74800
C591        C  0.10773522  0.14768841  0.61956687     0.77200
Cd592      Cd  0.21340015  0.16513413  0.62296524     1.37500
O593        O  0.26331305  0.20018894  0.59508894    -0.57800
O594        O  0.13084880  0.15186715  0.65439473    -0.56600
C595        C  0.28942372  0.12414286  0.61072072     0.77200
O596        O  0.13484914  0.14995260  0.58672447    -0.58900
O597        O  0.19643733  0.19076078  0.55808107    -0.57400
O598        O  0.25246692  0.17779007  0.69169028    -0.57400
O599        O  0.27762856  0.14059862  0.58252286    -0.56600
O600        O  0.23964690  0.30023774  0.92244473    -0.57800
C601        C  0.27936891  0.28136826  0.80724635     0.74900
O602        O  0.26311733  0.36270361  0.89379809    -0.58900
C603        C  0.27555534  0.28850532  0.94258297     0.74800
C604        C  0.40168666  0.33667691  0.86374221     0.77200
Cd605      Cd  0.29599652  0.32021793  0.87016452     1.37500
O606        O  0.29158201  0.27624732  0.84531397    -0.57800
O607        O  0.37271716  0.33463022  0.83135272    -0.56600
C608        C  0.22173657  0.36250421  0.87206960     0.77200
O609        O  0.38053254  0.33260608  0.89907418    -0.58900
O610        O  0.27795492  0.30478879  0.79719633    -0.57400
O611        O  0.32102039  0.29346925  0.93134802    -0.57400
O612        O  0.21611402  0.34334645  0.84854988    -0.56600
C613        C  0.48650125  0.96862168  0.78649647     0.86500
C614        C  0.44058081  0.95095816  0.79555553    -0.53700
C615        C  0.44339433  0.93842441  0.83372157     0.09500
C616        C  0.49275297  0.94372595  0.85931395     0.20400
C617        C  0.48865684  0.98587663  0.82631720    -0.54400
C618        C  0.49227935  0.97280341  0.86431023     0.09600
C619        C  0.53364039  0.95033372  0.79114029    -0.54000
C620        C  0.53717582  0.93736043  0.82881668     0.10100
H621        H  0.40985054  0.94677024  0.77350643     0.14600
H622        H  0.49565564  0.93313577  0.88995711     0.00400
H623        H  0.48638109  0.00651385  0.82474590     0.15000
H624        H  0.56135006  0.94723747  0.76595180     0.14700
C625        C  0.50021017  0.01692555  0.53539469     0.86500
C626        C  0.54794602  0.03353086  0.54444986    -0.53700
C627        C  0.54647015  0.04629467  0.58201859     0.09500
C628        C  0.49696321  0.04233209  0.60703348     0.20400
C629        C  0.49698060  0.99996906  0.57593123    -0.54400
C630        C  0.49474611  0.01339310  0.61333400     0.09600
C631        C  0.45453955  0.03607893  0.53877854    -0.54000
C632        C  0.45278140  0.04936966  0.57579107     0.10100
H633        H  0.57971495  0.03651410  0.52324705     0.14600
H634        H  0.49537412  0.05321174  0.63714525     0.00400
H635        H  0.49667670  0.97930990  0.57498372     0.15000
H636        H  0.42532810  0.03853220  0.51398292     0.14700
O637        O  0.68347969  0.69716114  0.68169928    -0.57800
C638        C  0.72819393  0.70517825  0.56297461     0.74900
O639        O  0.74632480  0.62419513  0.64939637    -0.58900
C640        C  0.72745035  0.69875396  0.69924344     0.74800
C641        C  0.60395066  0.65095346  0.61903752     0.77200
Cd642      Cd  0.71068604  0.66680480  0.62685327     1.37500
O643        O  0.71927305  0.71020091  0.60128410    -0.57800
O644        O  0.62779315  0.65196395  0.65428774    -0.56600
C645        C  0.78921305  0.62621516  0.63085719     0.77200
O646        O  0.63099996  0.65521453  0.58664371    -0.58900
O647        O  0.72814179  0.68173511  0.55343360    -0.57400
O648        O  0.76227137  0.68366208  0.68582941    -0.57400
O649        O  0.79427118  0.64616482  0.60882197    -0.56600
O650        O  0.73792724  0.80541220  0.93560471    -0.57800
C651        C  0.75899466  0.78275950  0.81394998     0.74900
O652        O  0.72993890  0.86078141  0.89585060    -0.58900
C653        C  0.76980067  0.78700017  0.94157787     0.74800
C654        C  0.89100721  0.83714799  0.87438092     0.77200
Cd655      Cd  0.78280454  0.82258743  0.87286286     1.37500
O656        O  0.79816080  0.79647878  0.80932859    -0.57800
O657        O  0.86432960  0.83656314  0.90785964    -0.56600
C658        C  0.70824797  0.86498945  0.86012212     0.77200
O659        O  0.86638437  0.83332563  0.84015871    -0.58900
O660        O  0.72948175  0.78875073  0.84405645    -0.57400
O661        O  0.80951743  0.78684236  0.91867023    -0.57400
O662        O  0.72384504  0.85089520  0.83023129    -0.56600
O663        O  0.22240480  0.70032307  0.58580976    -0.57800
C664        C  0.26219693  0.70220268  0.68076033     0.74900
O665        O  0.21512226  0.62859627  0.58826938    -0.58900
C666        C  0.23953200  0.69812709  0.54863622     0.74800
C667        C  0.37921610  0.64917675  0.61702106     0.77200
Cd668      Cd  0.26993257  0.66361506  0.61629051     1.37500
O669        O  0.30387218  0.69756246  0.66143314    -0.57800
O670        O  0.35156560  0.64794117  0.64978051    -0.56600
C671        C  0.20026450  0.62112005  0.62426506     0.77200
O672        O  0.35512747  0.65483816  0.58288902    -0.58900
O673        O  0.22469527  0.68816672  0.67139028    -0.57400
O674        O  0.26839317  0.67878435  0.54207304    -0.57400
O675        O  0.22006189  0.63212358  0.65586196    -0.56600
O676        O  0.19310735  0.78515033  0.82503116    -0.57800
C677        C  0.24266316  0.78018322  0.93824304     0.74900
O678        O  0.25544427  0.85993496  0.84742809    -0.58900
C679        C  0.23315658  0.78343079  0.80267948     0.74800
C680        C  0.11595269  0.83442202  0.87771005     0.77200
Cd681      Cd  0.22386353  0.81823811  0.87306002     1.37500
O682        O  0.26764681  0.78075151  0.90405403    -0.57800
O683        O  0.13873353  0.83170734  0.84256417    -0.56600
C684        C  0.29572351  0.86022878  0.87053164     0.77200
O685        O  0.14447809  0.83205478  0.91052808    -0.58900
O686        O  0.21174863  0.79883844  0.94419451    -0.57400
O687        O  0.26833038  0.79895972  0.81126430    -0.57400
O688        O  0.30131484  0.84199303  0.89673018    -0.56600
C689        C  0.28859299  0.74014880  0.96027057    -0.20300
C690        C  0.24881455  0.75820430  0.96815914    -0.06800
C691        C  0.21435082  0.75360332  0.00189300     0.14000
C692        C  0.20894808  0.74192407  0.52945793    -0.20300
C693        C  0.22838763  0.71806847  0.51591134    -0.06800
C694        C  0.29561768  0.71813114  0.98532329     0.14000
C695        C  0.25753883  0.68933591  0.45482302    -0.23700
H696        H  0.31452223  0.74316336  0.93405983     0.15300
H697        H  0.19984039  0.74466308  0.56263073     0.15300
C698        C  0.16939694  0.77136457  0.01151646    -0.23600
H699        H  0.35717063  0.70448789  0.94398512     0.05600
H700        H  0.22964718  0.67437313  0.46290836     0.08800
H701        H  0.29637899  0.68412917  0.46792308     0.08800
H702        H  0.14309694  0.77292788  0.98347716     0.08800
H703        H  0.18365141  0.79044686  0.02003975     0.08800
H704        H  0.17090713  0.78625445  0.55179245     0.05500
C705        C  0.20636867  0.73311724  0.71915959    -0.20300
C706        C  0.25642027  0.72336027  0.71155853    -0.06800
C707        C  0.29889897  0.73422522  0.73299677     0.14000
C708        C  0.28988130  0.75417365  0.76167177    -0.20300
C709        C  0.23972356  0.76355757  0.76980948    -0.06800
C710        C  0.19738578  0.75298862  0.74789826     0.14000
C711        C  0.14271456  0.76283874  0.75371163    -0.23700
H712        H  0.17381329  0.72519668  0.70229688     0.15300
H713        H  0.32230714  0.76213153  0.77865857     0.15300
C714        C  0.35368481  0.72459452  0.72699625    -0.23600
H715        H  0.11522167  0.75357737  0.73170625     0.05600
H716        H  0.14048481  0.78366909  0.74731254     0.08800
H717        H  0.12985365  0.75883987  0.78650999     0.10800
H718        H  0.36572793  0.72801876  0.69378745     0.08800
H719        H  0.35664126  0.70391405  0.73456118     0.08800
H720        H  0.38134048  0.73446576  0.74807104     0.05500
C721        C  0.97504422  0.83411701  0.91382038    -0.20300
C722        C  0.94837892  0.84027069  0.87578993    -0.06800
C723        C  0.97758950  0.84702388  0.83975413     0.14000
C724        C  0.03196774  0.84642640  0.84238846    -0.20300
C725        C  0.05865102  0.83876580  0.87967519    -0.06800
C726        C  0.02942604  0.83291182  0.91618597     0.14000
C727        C  0.05469115  0.82403668  0.95727555    -0.23700
H728        H  0.95316436  0.82888120  0.94153267     0.15300
H729        H  0.05388055  0.85115148  0.81443276     0.15300
C730        C  0.95218312  0.85473791  0.79815052    -0.23600
H731        H  0.02581866  0.81977922  0.98197766     0.05600
H732        H  0.07984096  0.83909828  0.96991757     0.08800
H733        H  0.07785959  0.80629796  0.95191200     0.08800
H734        H  0.92437495  0.87083682  0.80322294     0.08800
H735        H  0.93189702  0.83834801  0.78424128     0.08800
H736        H  0.98083068  0.86101832  0.77453009     0.05500
C737        C  0.52012572  0.64582024  0.65551511    -0.20300
C738        C  0.54697953  0.64660123  0.61698277    -0.06800
C739        C  0.51807998  0.64540442  0.57848777     0.14000
C740        C  0.46370382  0.64484251  0.57982833    -0.20300
C741        C  0.43679959  0.64566474  0.61840673    -0.06800
C742        C  0.46589738  0.64557866  0.65689578     0.14000
C743        C  0.44071757  0.64635486  0.69984536    -0.23700
H744        H  0.54165429  0.64652372  0.68517488     0.15300
H745        H  0.44194501  0.64464213  0.55023030     0.15300
C746        C  0.54362486  0.64521397  0.53571995    -0.23600
H747        H  0.46963124  0.64619368  0.72619268     0.05600
H748        H  0.41646778  0.62940319  0.70409183     0.08800
H749        H  0.41677606  0.66407976  0.70280862     0.08800
H750        H  0.57167574  0.62892007  0.53400761     0.08800
H751        H  0.56364668  0.66339051  0.53042323     0.08800
H752        H  0.51513002  0.64318535  0.50938900     0.05500
C753        C  0.74834264  0.71818568  0.48918072    -0.20300
C754        C  0.73821753  0.72551504  0.53109022    -0.06800
C755        C  0.73813423  0.75187616  0.54121365     0.14000
C756        C  0.80470820  0.75281440  0.98911221    -0.20300
C757        C  0.76122220  0.76602784  0.97228536    -0.06800
C758        C  0.71132562  0.75724005  0.98171116     0.14000
C759        C  0.66306317  0.76976500  0.96310649    -0.23700
H760        H  0.74875543  0.69814361  0.48119449     0.15300
H761        H  0.84294681  0.75923150  0.98133181     0.15300
C762        C  0.72885547  0.76155983  0.58555200    -0.23600
H763        H  0.62772086  0.75971305  0.97262276     0.05600
H764        H  0.66475795  0.76959884  0.92789064     0.08800
H765        H  0.65923200  0.78968100  0.97443035     0.08800
H766        H  0.75893842  0.75358566  0.60765924     0.08800
H767        H  0.68987324  0.75618075  0.59622997     0.08800
H768        H  0.73061654  0.78264716  0.58719464     0.05500
C769        C  0.79199060  0.74993250  0.76456354    -0.20300
C770        C  0.74972622  0.76041908  0.78647841    -0.06800
C771        C  0.70088254  0.74898449  0.78221326     0.14000
C772        C  0.69545510  0.72829905  0.75463524    -0.20300
C773        C  0.73752082  0.71827100  0.73189908    -0.06800
C774        C  0.78677254  0.72899321  0.73762576     0.14000
C775        C  0.83386151  0.71929480  0.71441577    -0.23700
H776        H  0.82964731  0.75823228  0.76844920     0.15300
H777        H  0.65779262  0.72004719  0.75041987     0.15300
C778        C  0.65388091  0.75862702  0.80558065    -0.23600
H779        H  0.86861590  0.73042567  0.72217665     0.05600
H780        H  0.82710692  0.72079248  0.67959537     0.08800
H781        H  0.84257915  0.69917308  0.72357129     0.08800
H782        H  0.64610709  0.77901277  0.79764569     0.08800
H783        H  0.66009213  0.75627151  0.84033453     0.08800
H784        H  0.61882417  0.74794663  0.79692957     0.05500
C785        C  0.61195020  0.92139263  0.87294446    -0.20300
C786        C  0.57896758  0.91796806  0.83789736    -0.06800
C787        C  0.58802086  0.89684940  0.81109299     0.14000
C788        C  0.63125189  0.88068482  0.81864627    -0.20300
C789        C  0.66506599  0.88419109  0.85333091    -0.06800
C790        C  0.65488240  0.90490146  0.88101535     0.14000
C791        C  0.68948743  0.91023503  0.91851632    -0.23700
H792        H  0.60446152  0.93729230  0.89388995     0.15300
H793        H  0.63750251  0.86458545  0.79778822     0.15300
C794        C  0.55172628  0.88999331  0.77535064    -0.23600
H795        H  0.67720267  0.92791337  0.93517735     0.05600
H796        H  0.72973971  0.91267689  0.90770282     0.08800
H797        H  0.68823105  0.89431322  0.94180423     0.08800
H798        H  0.51628560  0.90221884  0.77372301     0.08800
H799        H  0.53901059  0.87012338  0.77994167     0.08800
H800        H  0.57203588  0.89134667  0.74460167     0.05500
C801        C  0.42278074  0.89483278  0.85835160    -0.20300
C802        C  0.40488094  0.91937977  0.84687062    -0.06800
C803        C  0.35109780  0.92499154  0.84728350     0.14000
C804        C  0.31662226  0.90543281  0.85623293    -0.20300
C805        C  0.33435791  0.88056272  0.86599733    -0.06800
C806        C  0.38835255  0.87537535  0.86806389     0.14000
C807        C  0.41010621  0.84915974  0.87853260    -0.23700
H808        H  0.46400303  0.89064076  0.85843140     0.15300
H809        H  0.27538973  0.90956676  0.85544631     0.15300
C810        C  0.32975072  0.95167359  0.83989282    -0.23600
H811        H  0.45297109  0.84838815  0.87701776     0.05600
H812        H  0.39503409  0.83514410  0.85555751     0.08800
H813        H  0.39918285  0.84364754  0.91123718     0.08800
H814        H  0.33600836  0.95789910  0.80673814     0.08800
H815        H  0.34873526  0.96500107  0.86202148     0.08800
H816        H  0.28748587  0.95293025  0.84547245     0.05500
C817        C  0.53923628  0.00468386  0.46245804    -0.20300
C818        C  0.49852510  0.00258869  0.49199719    -0.06800
C819        C  0.45470131  0.98849019  0.47837157     0.14000
C820        C  0.45498637  0.98229861  0.93584005    -0.20300
C821        C  0.49550790  0.98501675  0.90710243    -0.06800
C822        C  0.54064479  0.99686841  0.92112547     0.14000
C823        C  0.58562410  0.00008255  0.89170805    -0.23700
H824        H  0.57452463  0.01384706  0.47082828     0.15300
H825        H  0.42064709  0.97257690  0.92544159     0.15300
C826        C  0.40858881  0.98354495  0.50588436    -0.23600
H827        H  0.61884126  0.00908126  0.90779242     0.05600
H828        H  0.57359226  0.01244027  0.86445414     0.08800
H829        H  0.59901897  0.98131202  0.87961460     0.08800
H830        H  0.37320857  0.99180252  0.49033491     0.08800
H831        H  0.41100881  0.99162857  0.53800093     0.08800
H832        H  0.40401704  0.96267392  0.50956500     0.05500
C833        C  0.44548807  0.97975304  0.71259932    -0.20300
C834        C  0.48628982  0.98279327  0.74255123    -0.06800
C835        C  0.52861742  0.99779718  0.72911965     0.14000
C836        C  0.53059761  0.00680564  0.68673951    -0.20300
C837        C  0.49165121  0.00183698  0.65683372    -0.06800
C838        C  0.44789653  0.98880238  0.67039213     0.14000
C839        C  0.40282494  0.98493742  0.64055117    -0.23700
H840        H  0.41072495  0.97037224  0.72117058     0.15300
H841        H  0.56294976  0.01802325  0.67675971     0.15300
C842        C  0.57183042  0.00519294  0.75892594    -0.23600
H843        H  0.37046167  0.97538956  0.65650098     0.05600
H844        H  0.41515508  0.97283137  0.61362087     0.08800
H845        H  0.38805833  0.00360531  0.62813320     0.08800
H846        H  0.59273642  0.98828139  0.77223839     0.08800
H847        H  0.55631826  0.01705037  0.78496674     0.08800
H848        H  0.60099649  0.01677026  0.74252514     0.05500
C849        C  0.36210819  0.10745890  0.56738485    -0.20300
C850        C  0.33104497  0.10447435  0.60338370    -0.06800
C851        C  0.34149102  0.08337457  0.63092437     0.14000
C852        C  0.38195139  0.06599600  0.62134388    -0.20300
C853        C  0.41179425  0.06882893  0.58483153    -0.06800
C854        C  0.40234879  0.09012022  0.55790438     0.14000
C855        C  0.43589797  0.09539419  0.52013114    -0.23700
H856        H  0.35529140  0.12370809  0.54646464     0.15300
H857        H  0.38995134  0.04983935  0.64222895     0.15300
C858        C  0.31006023  0.07863308  0.67002268    -0.23600
H859        H  0.42563987  0.11402014  0.50490895     0.05600
H860        H  0.43115094  0.08057727  0.49565196     0.08800
H861        H  0.47704359  0.09588255  0.53035406     0.08800
H862        H  0.26879026  0.07659985  0.66099829     0.08800
H863        H  0.31419537  0.09463678  0.69253676     0.08800
H864        H  0.32293446  0.06089117  0.68690095     0.05500
C865        C  0.22062579  0.24400489  0.71604802    -0.20300
C866        C  0.24027719  0.21921343  0.72449337    -0.06800
C867        C  0.27299022  0.21513783  0.76040210     0.14000
C868        C  0.28541932  0.23590412  0.78617995    -0.20300
C869        C  0.26656208  0.26073969  0.77713364    -0.06800
C870        C  0.23324883  0.26474307  0.74166524     0.14000
C871        C  0.20962413  0.29058266  0.73095192    -0.23700
H872        H  0.19564418  0.24738763  0.68863211     0.15300
H873        H  0.31043910  0.23269529  0.81363721     0.15300
C874        C  0.29469603  0.18910694  0.77230452    -0.23600
H875        H  0.18283807  0.28985239  0.70319757     0.05600
H876        H  0.24042512  0.30406046  0.72288158     0.08800
H877        H  0.18720234  0.29787780  0.75833603     0.08800
H878        H  0.32113019  0.18208176  0.74725835     0.08800
H879        H  0.26271597  0.17565028  0.77656516     0.08800
H880        H  0.31726764  0.18942412  0.80250348     0.05500
C881        C  0.20174805  0.23652500  0.50969198    -0.20300
C882        C  0.24332560  0.22726251  0.53480800    -0.06800
C883        C  0.29149503  0.23941805  0.53223409     0.14000
C884        C  0.30888696  0.25557079  0.99329119    -0.20300
C885        C  0.26585267  0.26888838  0.97571035    -0.06800
C886        C  0.21558461  0.26164576  0.98778539     0.14000
C887        C  0.16724515  0.27511580  0.97118385    -0.23700
H888        H  0.16460723  0.22755732  0.51209743     0.15300
H889        H  0.34746780  0.26080896  0.98417609     0.15300
C890        C  0.33808424  0.23071039  0.55820814    -0.23600
H891        H  0.13181642  0.26729357  0.98532825     0.05600
H892        H  0.16397367  0.27275808  0.93627404     0.08800
H893        H  0.16815031  0.29565811  0.97921606     0.08800
H894        H  0.34719777  0.21032136  0.55187618     0.08800
H895        H  0.33055220  0.23346751  0.59250660     0.08800
H896        H  0.37287377  0.24170301  0.55038754     0.05500
C897        C  0.48463527  0.34775915  0.89896066    -0.20300
C898        C  0.45788346  0.34211267  0.86117253    -0.06800
C899        C  0.48644967  0.33930711  0.82325329     0.14000
C900        C  0.54069386  0.33984421  0.82509949    -0.20300
C901        C  0.56750800  0.34283897  0.86370345    -0.06800
C902        C  0.53887913  0.34818610  0.90078824     0.14000
C903        C  0.56484117  0.35422666  0.94252275    -0.23700
H904        H  0.46307983  0.35081091  0.92784661     0.15300
H905        H  0.56237798  0.33625361  0.79644474     0.15300
C906        C  0.46079939  0.33448923  0.78093504    -0.23600
H907        H  0.53637018  0.36023127  0.96682366     0.05600
H908        H  0.59193076  0.37006993  0.93804036     0.08800
H909        H  0.58602553  0.33717464  0.95530973     0.08800
H910        H  0.43350342  0.35048238  0.77282913     0.08800
H911        H  0.43992986  0.31628412  0.78205132     0.08800
H912        H  0.48928716  0.33299343  0.75492598     0.05500
C913        C  0.57205955  0.08964782  0.60254444    -0.20300
C914        C  0.58693317  0.06425521  0.59524832    -0.06800
C915        C  0.63967640  0.05682284  0.59922069     0.14000
C916        C  0.67662833  0.07545251  0.60708600    -0.20300
C917        C  0.66205186  0.10119625  0.61208690    -0.06800
C918        C  0.60880002  0.10824822  0.61087426     0.14000
C919        C  0.59029375  0.13549426  0.61609137    -0.23700
H920        H  0.53147741  0.09513856  0.60014897     0.15300
H921        H  0.71722330  0.06992873  0.60892866     0.15300
C922        C  0.65703420  0.02926449  0.59635772    -0.23600
H923        H  0.54767114  0.13755947  0.61234555     0.05600
H924        H  0.60813372  0.14776934  0.59173327     0.08800
H925        H  0.60060172  0.14227566  0.64831529     0.08800
H926        H  0.64977514  0.02184634  0.56406003     0.08800
H927        H  0.63588439  0.01773040  0.61983527     0.08800
H928        H  0.69903887  0.02674829  0.60322646     0.05500
C929        C  0.96848238  0.13950917  0.58070704    -0.20300
C930        C  0.94169089  0.13998029  0.61929864    -0.06800
C931        C  0.97079199  0.13906629  0.65777915     0.14000
C932        C  0.02499734  0.13987281  0.65638537    -0.20300
C933        C  0.05147176  0.14193410  0.61783316    -0.06800
C934        C  0.02263135  0.14068703  0.57931118     0.14000
C935        C  0.04778638  0.14144342  0.53637932    -0.23700
H936        H  0.94676900  0.13953011  0.55108156     0.15300
H937        H  0.04671669  0.14008593  0.68599608     0.15300
C938        C  0.94563525  0.13804775  0.70067903    -0.23600
H939        H  0.01921235  0.13953700  0.51007431     0.05600
H940        H  0.07640076  0.12544388  0.53377689     0.08800
H941        H  0.06698204  0.15991185  0.53175509     0.08800
H942        H  0.92052334  0.12124835  0.70255421     0.08800
H943        H  0.92257590  0.15580341  0.70609903     0.08800
H944        H  0.97461020  0.13628480  0.72689895     0.05500
C945        C  0.80888658  0.22235621  0.99205409    -0.20300
C946        C  0.75853345  0.21610616  0.50944926    -0.06800
C947        C  0.71367632  0.21819960  0.48333949     0.14000
C948        C  0.71501198  0.24891953  0.98210465    -0.20300
C949        C  0.75770005  0.25672032  0.95866580    -0.06800
C950        C  0.80542688  0.24314644  0.96376566     0.14000
C951        C  0.85332870  0.25052421  0.94031953    -0.23700
H952        H  0.82957192  0.23391595  0.52725379     0.15300
H953        H  0.67836551  0.25915173  0.97821383     0.15300
C954        C  0.67217632  0.19855415  0.48409169    -0.23600
H955        H  0.88755894  0.23863216  0.95014022     0.05600
H956        H  0.86221635  0.27070023  0.94696008     0.08800
H957        H  0.84758127  0.24783482  0.90568386     0.08800
H958        H  0.65603748  0.19708898  0.51649913     0.08800
H959        H  0.68847193  0.17978370  0.47424704     0.08800
H960        H  0.63968252  0.20358354  0.46200270     0.05500
C961        C  0.79406692  0.22784482  0.72921196    -0.20300
C962        C  0.74961653  0.21889234  0.70895517    -0.06800
C963        C  0.70122198  0.23092021  0.71704926     0.14000
C964        C  0.69883038  0.25153587  0.74521555    -0.20300
C965        C  0.74353045  0.26081377  0.76491924    -0.06800
C966        C  0.79188393  0.24868014  0.75677774     0.14000
C967        C  0.84138163  0.25699548  0.77761242    -0.23700
H968        H  0.83117033  0.21872808  0.72277934     0.15300
H969        H  0.66167313  0.26055154  0.75177366     0.15300
C970        C  0.65179694  0.22178033  0.69719581    -0.23600
H971        H  0.87490693  0.24464542  0.76864919     0.05600
H972        H  0.83789094  0.25601762  0.81269160     0.08800
H973        H  0.84994892  0.27672778  0.76752470     0.08800
H974        H  0.64713017  0.20125735  0.70458903     0.08800
H975        H  0.65239879  0.22469485  0.66228553     0.08800
H976        H  0.61740403  0.23236006  0.70933054     0.05500
C977        C  0.11197527  0.56411968  0.60967158    -0.20300
C978        C  0.08059446  0.56668344  0.64547114    -0.06800
C979        C  0.08748547  0.58758891  0.67285665     0.14000
C980        C  0.12758748  0.60437352  0.66527846    -0.20300
C981        C  0.15983308  0.60174872  0.62996257    -0.06800
C982        C  0.15133497  0.58150902  0.60131859     0.14000
C983        C  0.18438075  0.57761439  0.56276891    -0.23700
H984        H  0.10622555  0.54816128  0.58861429     0.15300
H985        H  0.13270087  0.62020632  0.68674029     0.15300
C986        C  0.05241740  0.59336525  0.70967954    -0.23600
H987        H  0.17384483  0.56019667  0.54516525     0.05600
H988        H  0.22563342  0.57557681  0.57253588     0.08800
H989        H  0.17916466  0.59406710  0.54069169     0.08800
H990        H  0.01945832  0.58042985  0.71190722     0.08800
H991        H  0.03584882  0.61298721  0.70601744     0.08800
H992        H  0.07496919  0.59211907  0.73985406     0.05500
C993        C  0.92185411  0.59285805  0.64139554    -0.20300
C994        C  0.90778116  0.56775199  0.64976257    -0.06800
C995        C  0.85486956  0.56165398  0.64944747     0.14000
C996        C  0.81731779  0.58106699  0.64254285    -0.20300
C997        C  0.83112470  0.60640837  0.63527336    -0.06800
C998        C  0.88434344  0.61232360  0.63438343     0.14000
C999        C  0.90216913  0.63919346  0.62804956    -0.23700
H1000       H  0.96248132  0.59736170  0.64141486     0.15300
H1001       H  0.77678133  0.57640378  0.64285211     0.15300
C1002       C  0.83769314  0.53463929  0.65525224    -0.23600
H1003       H  0.94488607  0.64035794  0.63054905     0.05600
H1004       H  0.88518953  0.65178030  0.65269173     0.08800
H1005       H  0.89041340  0.64627162  0.59600356     0.08800
H1006       H  0.84718690  0.52782679  0.68781977     0.08800
H1007       H  0.85704983  0.52204015  0.63181722     0.08800
H1008       H  0.79529224  0.53308668  0.65065508     0.05500
C1009       C  0.12947534  0.37550526  0.86639754    -0.20300
C1010       C  0.18033032  0.38252967  0.87541196    -0.06800
C1011       C  0.18930502  0.40766522  0.88905509     0.14000
C1012       C  0.14703937  0.42460420  0.89478382    -0.20300
C1013       C  0.09568818  0.41710044  0.88823449    -0.06800
C1014       C  0.08709831  0.39212903  0.87303318     0.14000
C1015       C  0.03394923  0.38170060  0.86625908    -0.23700
H1016       H  0.12250328  0.35630022  0.85573874     0.15300
H1017       H  0.15417244  0.44376979  0.90552823     0.15300
C1018       C  0.24307541  0.41692044  0.89748980    -0.23600
H1019       H  0.01480177  0.39063161  0.83813173     0.05600
H1020       H  0.01066851  0.38457169  0.89503460     0.08800
H1021       H  0.03536911  0.36089274  0.86011856     0.08800
H1022       H  0.26708136  0.41416147  0.86882791     0.08800
H1023       H  0.26090522  0.40636145  0.92479283     0.08800
H1024       H  0.24290241  0.43749519  0.90547231     0.05500
C1025       C  0.87119583  0.37669862  0.91932126    -0.20300
C1026       C  0.84350171  0.37756106  0.88066282    -0.06800
C1027       C  0.85594939  0.39639624  0.85015155     0.14000
C1028       C  0.89370498  0.41435390  0.86012930    -0.20300
C1029       C  0.91963252  0.41401914  0.89954435    -0.06800
C1030       C  0.90925537  0.39433395  0.92905406     0.14000
C1031       C  0.93953824  0.39071936  0.97006891    -0.23700
H1032       H  0.86332784  0.36187272  0.94229968     0.15300
H1033       H  0.90272931  0.42892177  0.83707339     0.15300
C1034       C  0.82969053  0.39799213  0.80723444    -0.23600
H1035       H  0.93123109  0.37224583  0.98565028     0.05600
H1036       H  0.92910457  0.40579597  0.99300544     0.08800
H1037       H  0.98163650  0.39083210  0.96400586     0.08800
H1038       H  0.78737195  0.40078659  0.81110870     0.08800
H1039       H  0.83783891  0.38026115  0.78926294     0.08800
H1040       H  0.84369173  0.41417866  0.78797593     0.05500
C1041       C  0.98310495  0.50096559  0.00000472    -0.20300
C1042       C  0.00802498  0.47712690  0.99383129    -0.06800
C1043       C  0.02484776  0.46355218  0.03135677     0.14000
C1044       C  0.01074204  0.47648393  0.57183034    -0.20300
C1045       C  0.98995450  0.50123530  0.57708388    -0.06800
C1046       C  0.96856750  0.51357645  0.54014045     0.14000
C1047       C  0.93280844  0.53661108  0.54199498    -0.23700
H1048       H  0.96451360  0.51062550  0.97326809     0.15300
H1049       H  0.02591113  0.46599449  0.59911847     0.15300
C1050       C  0.04252597  0.43591572  0.03151027    -0.23600
H1051       H  0.89886077  0.53394190  0.52072697     0.05600
H1052       H  0.95316029  0.55384003  0.53131997     0.08800
H1053       H  0.91656531  0.53936458  0.57395129     0.08800
H1054       H  0.08485557  0.43440272  0.02675383     0.08800
H1055       H  0.02168739  0.42478404  0.00737431     0.08800
H1056       H  0.03428187  0.42671685  0.06250541     0.05500
C1057       C  0.95496628  0.48033146  0.80210156    -0.20300
C1058       C  0.99916755  0.48137315  0.82810688    -0.06800
C1059       C  0.04503063  0.49024847  0.81027012     0.14000
C1060       C  0.04474146  0.49952075  0.76816660    -0.20300
C1061       C  0.99932324  0.50078694  0.74252639    -0.06800
C1062       C  0.95462154  0.48917311  0.75957705     0.14000
C1063       C  0.90577546  0.48510332  0.73425614    -0.23700
H1064       H  0.92040328  0.47211627  0.81488779     0.15300
H1065       H  0.08127094  0.50503423  0.75557774     0.15300
C1066       C  0.09501884  0.48929066  0.83532338    -0.23600
H1067       H  0.89644031  0.46457184  0.73517463     0.05600
H1068       H  0.90865470  0.49050347  0.70044468     0.08800
H1069       H  0.87335039  0.49618737  0.74848515     0.08800
H1070       H  0.10510052  0.46927336  0.84409826     0.08800
H1071       H  0.09095331  0.50078037  0.86458332     0.08800
H1072       H  0.12755561  0.49693360  0.81688123     0.05500
loop_ 
_geom_bond_atom_site_label_1 
_geom_bond_atom_site_label_2 
_geom_bond_distance 
_geom_bond_site_symmetry_2 
_ccdc_geom_bond_type 
C1            C2   1.543   1_655  S
C1            C7   1.531       .  S
C1            C5   1.557       .  S
C1          C506   1.555       .  S
C2            H9   1.086       .  S
C2            C3   1.367       .  D
C3            C4   1.538   1_455  S
C3          C477   1.492       .  S
C4            C8   1.543       .  S
C4            C6   1.539       .  S
C4           H10   1.107       .  S
C5           H11   1.084       .  S
C5            C6   1.379       .  D
C6          C522   1.500       .  S
C7           H12   1.083       .  S
C7            C8   1.362       .  D
C8          C493   1.495       .  S
C13          C14   1.537   1_455  S
C13          C19   1.547       .  S
C13          C17   1.555       .  S
C13         C525   1.565       .  S
C14          H21   1.085       .  S
C14          C15   1.364       .  D
C15          C16   1.539   1_655  S
C15         C458   1.486       .  S
C16          C20   1.531       .  S
C16          C18   1.545       .  S
C16          H22   1.108       .  S
C17          H23   1.085       .  S
C17          C18   1.386       .  D
C18         C509   1.522       .  S
C19          H24   1.079       .  S
C19          C20   1.360       .  D
C20         C442   1.481       .  S
O25          C28   1.265       .  A
O25         Cd30   2.457       .  S
C26          O35   1.270       .  A
C26          O31   1.258       .  A
C26         C426   1.487       .  S
O27          C33   1.265       .  A
O27         Cd30   2.492       .  S
C28          O36   1.266       .  A
C28         C410   1.488       .  S
C29          O34   1.265       .  A
C29          O32   1.266       .  A
C29         C394   1.496       .  S
Cd30         O37   2.473       .  S
Cd30         O36   2.462       .  S
Cd30         O35   2.499       .  S
Cd30         O31   2.418       .  S
Cd30         O34   2.482       .  S
Cd30         O32   2.468       .  S
C33          O37   1.263       .  A
C33         C381   1.483       .  S
O38          C41   1.263       .  A
O38         Cd43   2.443       .  S
C39          O48   1.266       .  A
C39          O44   1.262       .  A
C39         C429   1.482       .  S
O40          C46   1.264       .  A
O40         Cd43   2.448       .  S
C41          O49   1.266       .  A
C41         C413   1.489       .  S
C42          O47   1.267       .  A
C42          O45   1.264       .  A
C42         C490   1.490       .  S
Cd43         O50   2.486       .  S
Cd43         O49   2.468       .  S
Cd43         O48   2.468       .  S
Cd43         O44   2.438       .  S
Cd43         O47   2.507       .  S
Cd43         O45   2.444       .  S
C46          O50   1.266       .  A
C46         C365   1.489       .  S
O51          C54   1.264       .  A
O51         Cd56   2.424       .  S
C52          O61   1.267       .  A
C52          O57   1.263       .  A
C52         C346   1.481       .  S
O53          C59   1.265       .  A
O53         Cd56   2.491       .  S
C54          O62   1.266       .  A
C54         C330   1.486       .  S
C55          O60   1.264       .  A
C55          O58   1.266       .  A
C55         C397   1.497       .  S
Cd56         O63   2.457       .  S
Cd56         O62   2.473       .  S
Cd56         O61   2.475       .  S
Cd56         O57   2.440       .  S
Cd56         O60   2.472       .  S
Cd56         O58   2.483       .  S
C59          O63   1.264       .  A
C59         C314   1.492       .  S
O64          C67   1.262       .  A
O64         Cd69   2.456       .  S
C65          O74   1.266       .  A
C65          O70   1.264       .  A
C65         C333   1.481       .  S
O66          C72   1.266       .  A
O66         Cd69   2.487       .  S
C67          O75   1.265       .  A
C67         C349   1.489       .  S
C68          O73   1.266       .  A
C68          O71   1.265       .  A
C68         C362   1.492       .  S
Cd69         O76   2.448       .  S
Cd69         O75   2.467       .  S
Cd69         O74   2.453       .  S
Cd69         O70   2.447       .  S
Cd69         O73   2.456       .  S
Cd69         O71   2.469       .  S
C72          O76   1.263       .  A
C72         C474   1.480       .  S
C77          C78   1.553       .  S
C77          C83   1.538       .  S
C77          C81   1.554       .  S
C77         C298   1.567       .  S
C78          H85   1.078       .  S
C78          C79   1.367       .  D
C79          C80   1.534       .  S
C79         C266   1.486       .  S
C80          C84   1.536       .  S
C80          C82   1.535       .  S
C80          H86   1.111       .  S
C81          H87   1.084   1_565  S
C81          C82   1.377       .  D
C82         C285   1.499       .  S
C83          H88   1.086       .  S
C83          C84   1.364       .  D
C84         C250   1.486       .  S
C89          C90   1.552       .  S
C89          C95   1.538       .  S
C89          C93   1.556       .  S
C89         C282   1.568   1_554  S
C90          H97   1.076       .  S
C90          C91   1.363       .  D
C91          C92   1.534       .  S
C91         C378   1.489       .  S
C92          C96   1.536       .  S
C92          C94   1.535       .  S
C92          H98   1.111       .  S
C93          H99   1.085   1_545  S
C93          C94   1.380       .  D
C94         C301   1.503       .  S
C95         H100   1.086       .  S
C95          C96   1.365       .  D
C96         C317   1.483       .  S
O101        C104   1.263       .  A
O101       Cd106   2.444       .  S
C102        O111   1.268       .  A
C102        O107   1.262       .  A
C102        C218   1.482       .  S
O103        C109   1.264       .  A
O103       Cd106   2.460       .  S
C104        O112   1.263       .  A
C104        C237   1.478       .  S
C105        O110   1.268       .  A
C105        O108   1.266       .  A
C105        C202   1.495       .  S
Cd106       O113   2.479       .  S
Cd106       O112   2.446       .  S
Cd106       O111   2.482       .  S
Cd106       O107   2.432       .  S
Cd106       O110   2.485       .  S
Cd106       O108   2.445       .  S
C109        O113   1.264       .  A
C109        C461   1.480       .  S
O114        C117   1.259       .  A
O114       Cd119   2.430       .  S
C115        O124   1.265       .  A
C115        O120   1.267       .  A
C115        C234   1.480       .  S
O116        C122   1.266       .  A
O116       Cd119   2.504       .  S
C117        O125   1.269       .  A
C117        C221   1.487       .  S
C118        O123   1.263       .  A
C118        O121   1.266       .  A
C118        C186   1.494       .  S
Cd119       O126   2.464       .  S
Cd119       O125   2.502       .  S
Cd119       O124   2.439       .  S
Cd119       O120   2.438       .  S
Cd119       O123   2.472       .  S
Cd119       O121   2.469       .  S
C122        O126   1.264       .  A
C122        C253   1.495       .  S
O127        C130   1.266       .  A
O127       Cd132   2.455       .  S
C128        O137   1.261       .  A
C128        O133   1.266       .  A
C128        C170   1.488       .  S
O129        C135   1.264       .  A
O129       Cd132   2.495       .  S
C130        O138   1.265       .  A
C130        C157   1.479       .  S
C131        O136   1.267       .  A
C131        O134   1.264       .  A
C131        C205   1.493       .  S
Cd132       O139   2.454       .  S
Cd132       O138   2.442       .  S
Cd132       O137   2.434       .  S
Cd132       O133   2.488       .  S
Cd132       O136   2.480       .  S
Cd132       O134   2.451       .  S
C135        O139   1.264       .  A
C135        C445   1.490       .  S
O140        C143   1.266       .  A
O140       Cd145   2.454       .  S
C141        O150   1.268       .  A
C141        O146   1.262       .  A
C141        C154   1.480       .  S
O142        C148   1.265       .  A
O142       Cd145   2.474       .  S
C143        O151   1.265       .  A
C143        C173   1.482       .  S
C144        O149   1.265       .  A
C144        O147   1.267       .  A
C144        C189   1.492       .  S
Cd145       O152   2.474       .  S
Cd145       O151   2.445       .  S
Cd145       O150   2.479       .  S
Cd145       O146   2.411       .  S
Cd145       O149   2.458       .  S
Cd145       O147   2.465       .  S
C148        O152   1.263       .  A
C148        C269   1.482       .  S
C153        C154   1.405       .  A
C153        C158   1.400       .  A
C153        H160   1.084       .  S
C154        C155   1.413       .  A
C155        C162   1.508       .  S
C155        C692   1.404       .  A
C156        C157   1.405       .  A
C156        C691   1.404       .  A
C156        H161   1.084       .  S
C157        C694   1.412   1_554  A
C158        C695   1.508       .  S
C158        C693   1.415       .  A
C159        C694   1.508       .  S
C159        H164   1.111       .  S
C159        H165   1.109       .  S
C159        H699   1.111       .  S
C162        H166   1.111       .  S
C162        H167   1.109       .  S
C162        H704   1.111       .  S
H163        C695   1.111       .  S
H168        C698   1.111       .  S
C169        C170   1.408       .  A
C169        C174   1.401       .  A
C169        H176   1.084       .  S
C170        C171   1.417       .  A
C171        C178   1.508       .  S
C171        C172   1.404       .  A
C172        C173   1.406       .  A
C172        H177   1.084       .  S
C173        C174   1.413       .  A
C174        C175   1.509       .  S
C175        H179   1.111       .  S
C175        H180   1.111       .  S
C175        H181   1.109       .  S
C178        H182   1.110       .  S
C178        H183   1.110       .  S
C178        H184   1.111       .  S
C185        C186   1.406       .  A
C185        C190   1.405   1_655  A
C185        H192   1.083       .  S
C186        C187   1.420       .  A
C187        C194   1.508       .  S
C187        C188   1.406   1_655  A
C188        C189   1.406       .  A
C188        H193   1.084       .  S
C189        C190   1.419       .  A
C190        C191   1.509       .  S
C191        H195   1.111       .  S
C191        H196   1.110       .  S
C191        H197   1.110       .  S
C194        H198   1.110       .  S
C194        H199   1.110       .  S
C194        H200   1.111       .  S
C201        C202   1.407       .  A
C201        C206   1.404       .  A
C201        H208   1.084       .  S
C202        C203   1.419       .  A
C203        C210   1.508       .  S
C203        C204   1.407       .  A
C204        C205   1.407       .  A
C204        H209   1.084       .  S
C205        C206   1.419       .  A
C206        C207   1.509       .  S
C207        H211   1.111       .  S
C207        H212   1.110       .  S
C207        H213   1.110       .  S
C210        H214   1.110       .  S
C210        H215   1.110       .  S
C210        H216   1.111       .  S
C217        C218   1.404       .  A
C217        C758   1.405   1_554  A
C217        H224   1.084       .  S
C218        C219   1.416       .  A
C219        C226   1.509       .  S
C219        C756   1.403   1_554  A
C220        C221   1.402       .  A
C220        C755   1.405       .  A
C220        H225   1.084       .  S
C221        C222   1.420       .  A
C222        C223   1.510       .  S
C222        C753   1.403       .  A
C223        H227   1.111       .  S
C223        H228   1.110       .  S
C223        H229   1.111       .  S
C226        H230   1.111       .  S
C226        H231   1.109       .  S
C226        H232   1.111       .  S
C233        C234   1.404       .  A
C233        C238   1.400       .  A
C233        H240   1.084       .  S
C234        C235   1.416       .  A
C235        C242   1.508       .  S
C235        C236   1.402       .  A
C236        C237   1.404       .  A
C236        H241   1.084       .  S
C237        C238   1.416       .  A
C238        C239   1.509       .  S
C239        H243   1.111       .  S
C239        H244   1.111       .  S
C239        H245   1.110       .  S
C242        H246   1.111       .  S
C242        H247   1.109       .  S
C242        H248   1.111       .  S
C249        C250   1.402       .  A
C249        C254   1.410       .  A
C249        H256   1.084       .  S
C250        C251   1.414       .  A
C251        C258   1.509       .  S
C251        C252   1.402       .  A
C252        C253   1.407       .  A
C252        H257   1.085       .  S
C253        C254   1.420       .  A
C254        C255   1.506       .  S
C255        H259   1.111       .  S
C255        H260   1.110       .  S
C255        H261   1.110       .  S
C258        H262   1.107       .  S
C258        H263   1.111       .  S
C258        H264   1.110       .  S
C265        C266   1.402       .  A
C265        C270   1.405       .  A
C265        H272   1.084       .  S
C266        C267   1.415       .  A
C267        C274   1.508       .  S
C267        C268   1.404       .  A
C268        C269   1.403       .  A
C268        H273   1.084       .  S
C269        C270   1.417       .  A
C270        C271   1.508       .  S
C271        H275   1.111       .  S
C271        H276   1.110       .  S
C271        H277   1.110       .  S
C274        H278   1.107       .  S
C274        H279   1.110       .  S
C274        H280   1.111       .  S
C281        C282   1.422       .  A
C281        C822   1.410   1_545  A
C281        H288   1.070       .  S
C282        C283   1.432   1_545  A
C283        C290   1.510   1_556  S
C283        C820   1.416       .  A
C284        C285   1.402       .  A
C284        C819   1.415       .  A
C284        H289   1.085       .  S
C285        C286   1.407       .  A
C286        C287   1.508       .  S
C286        C817   1.410   1_565  A
C287        H291   1.110   1_565  S
C287        H292   1.108   1_565  S
C287        H293   1.109       .  S
C290        H294   1.111   1_554  S
C290        H295   1.102       .  S
C290        H296   1.110       .  S
C297        C298   1.420       .  A
C297        C302   1.413       .  A
C297        H304   1.073       .  S
C298        C299   1.431       .  A
C299        C306   1.511   1_565  S
C299        C300   1.415   1_565  A
C300        C301   1.403       .  A
C300        H305   1.084       .  S
C301        C302   1.410   1_545  A
C302        C303   1.508       .  S
C303        H307   1.111       .  S
C303        H308   1.108       .  S
C303        H309   1.110   1_565  S
C306        H310   1.106   1_545  S
C306        H311   1.106       .  S
C306        H312   1.111       .  S
C313        C314   1.407       .  A
C313        C318   1.402       .  A
C313        H320   1.084       .  S
C314        C315   1.420       .  A
C315        C322   1.507       .  S
C315        C316   1.408       .  A
C316        C317   1.402       .  A
C316        H321   1.085       .  S
C317        C318   1.412       .  A
C318        C319   1.509       .  S
C319        H323   1.111       .  S
C319        H324   1.107       .  S
C319        H325   1.110       .  S
C322        H326   1.110       .  S
C322        H327   1.110       .  S
C322        H328   1.111       .  S
C329        C330   1.406       .  A
C329        C334   1.400       .  A
C329        H336   1.084       .  S
C330        C331   1.418       .  A
C331        C338   1.508       .  S
C331        C332   1.404       .  A
C332        C333   1.405       .  A
C332        H337   1.084       .  S
C333        C334   1.415       .  A
C334        C335   1.509       .  S
C335        H339   1.111       .  S
C335        H340   1.109       .  S
C335        H341   1.111       .  S
C338        H342   1.110       .  S
C338        H343   1.110       .  S
C338        H344   1.111       .  S
C345        C346   1.403       .  A
C345        C886   1.404   1_554  A
C345        H352   1.085       .  S
C346        C347   1.415       .  A
C347        C354   1.509       .  S
C347        C884   1.401   1_554  A
C348        C349   1.406       .  A
C348        C883   1.403       .  A
C348        H353   1.084       .  S
C349        C350   1.420       .  A
C350        C351   1.509       .  S
C350        C881   1.403       .  A
C351        H355   1.111       .  S
C351        H356   1.110       .  S
C351        H357   1.110       .  S
C354        H358   1.111       .  S
C354        H359   1.109       .  S
C354        H360   1.111       .  S
C361        C362   1.406       .  A
C361        C366   1.404       .  A
C361        H368   1.084       .  S
C362        C363   1.419       .  A
C363        C370   1.508       .  S
C363        C364   1.407       .  A
C364        C365   1.406       .  A
C364        H369   1.084       .  S
C365        C366   1.417       .  A
C366        C367   1.508       .  S
C367        H371   1.111       .  S
C367        H372   1.111       .  S
C367        H373   1.109       .  S
C370        H374   1.111       .  S
C370        H375   1.110       .  S
C370        H376   1.111       .  S
C377        C378   1.401       .  A
C377        C382   1.404       .  A
C377        H384   1.084       .  S
C378        C379   1.418       .  A
C379        C386   1.509       .  S
C379        C380   1.407       .  A
C380        C381   1.403       .  A
C380        H385   1.084       .  S
C381        C382   1.416       .  A
C382        C383   1.508       .  S
C383        H387   1.111       .  S
C383        H388   1.111       .  S
C383        H389   1.109       .  S
C386        H390   1.107       .  S
C386        H391   1.110       .  S
C386        H392   1.111       .  S
C393        C394   1.406       .  A
C393        C398   1.405   1_655  A
C393        H400   1.083       .  S
C394        C395   1.419       .  A
C395        C402   1.508       .  S
C395        C396   1.408   1_655  A
C396        C397   1.408       .  A
C396        H401   1.084       .  S
C397        C398   1.419       .  A
C398        C399   1.508       .  S
C399        H403   1.111       .  S
C399        H404   1.110       .  S
C399        H405   1.110       .  S
C402        H406   1.110       .  S
C402        H407   1.109       .  S
C402        H408   1.111       .  S
C409        C414   1.402       .  A
C409        C946   1.405       .  A
C409        H952   1.084       .  S
C410        C411   1.419       .  A
C410        C945   1.405   1_554  A
C411        C418   1.509       .  S
C411        C948   1.404   1_554  A
C412        C413   1.407       .  A
C412        C947   1.405       .  A
C412        H417   1.084       .  S
C413        C414   1.419       .  A
C414        C415   1.510       .  S
C415        H419   1.111       .  S
C415        H420   1.110       .  S
C415        H421   1.110       .  S
H416        C945   1.084       .  S
C418        H422   1.109       .  S
C418        H423   1.110       .  S
C418        H424   1.111       .  S
C425        C426   1.403       .  A
C425        C430   1.403       .  A
C425        H432   1.084       .  S
C426        C427   1.423       .  A
C427        C434   1.510       .  S
C427        C428   1.403       .  A
C428        C429   1.401       .  A
C428        H433   1.084       .  S
C429        C430   1.418       .  A
C430        C431   1.509       .  S
C431        H435   1.111       .  S
C431        H436   1.111       .  S
C431        H437   1.110       .  S
C434        H438   1.110       .  S
C434        H439   1.110       .  S
C434        H440   1.111       .  S
C441        C442   1.401       .  A
C441        C446   1.410       .  A
C441        H448   1.084       .  S
C442        C443   1.413       .  A
C443        C450   1.509       .  S
C443        C444   1.398       .  A
C444        C445   1.405       .  A
C444        H449   1.085       .  S
C445        C446   1.421       .  A
C446        C447   1.506       .  S
C447        H451   1.111       .  S
C447        H452   1.110       .  S
C447        H453   1.110       .  S
C450        H454   1.106       .  S
C450        H455   1.111       .  S
C450        H456   1.110       .  S
C457        C458   1.403       .  A
C457        C462   1.407       .  A
C457        H464   1.084       .  S
C458        C459   1.416       .  A
C459        C466   1.508       .  S
C459        C460   1.401       .  A
C460        C461   1.400       .  A
C460        H465   1.084       .  S
C461        C462   1.417       .  A
C462        C463   1.507       .  S
C463        H467   1.111       .  S
C463        H468   1.110       .  S
C463        H469   1.110       .  S
C466        H470   1.106       .  S
C466        H471   1.111       .  S
C466        H472   1.111       .  S
C473        C474   1.402       .  A
C473        C478   1.402       .  A
C473        H480   1.084       .  S
C474        C475   1.412       .  A
C475        C482   1.507       .  S
C475        C476   1.406       .  A
C476        C477   1.407       .  A
C476        H481   1.083       .  S
C477        C478   1.417       .  A
C478        C479   1.506       .  S
C479        H483   1.106       .  S
C479        H484   1.104       .  S
C479        H485   1.111       .  S
C482        H486   1.111       .  S
C482        H487   1.109       .  S
C482        H488   1.111       .  S
C489        C490   1.404       .  A
C489        C494   1.402       .  A
C489        H496   1.084       .  S
C490        C491   1.416       .  A
C491        C498   1.506       .  S
C491        C492   1.409       .  A
C492        C493   1.405       .  A
C492        H497   1.082       .  S
C493        C494   1.421       .  A
C494        C495   1.512       .  S
C495        H499   1.111       .  S
C495        H500   1.106       .  S
C495        H501   1.107       .  S
C498        H502   1.110       .  S
C498        H503   1.110       .  S
C498        H504   1.111       .  S
C505        C506   1.409       .  A
C505       C1046   1.415       .  A
C505        H512   1.081       .  S
C506        C507   1.432   1_655  A
C507        C514   1.512       .  S
C507       C1044   1.409       .  A
C508        C509   1.404       .  A
C508       C1043   1.411       .  A
C508        H513   1.082       .  S
C509        C510   1.426   1_455  A
C510        C511   1.506       .  S
C510       C1041   1.414       .  A
C511        H515   1.111       .  S
C511        H516   1.110       .  S
C511        H517   1.102       .  S
C514        H518   1.110       .  S
C514        H519   1.101       .  S
C514        H520   1.111   1_455  S
C521        C522   1.401       .  A
C521        C526   1.414       .  A
C521        H528   1.083       .  S
C522        C523   1.409   1_655  A
C523        C530   1.508       .  S
C523        C524   1.410       .  A
C524        C525   1.420       .  A
C524        H529   1.072       .  S
C525        C526   1.432   1_455  A
C526        C527   1.509       .  S
C527        H531   1.111       .  S
C527        H532   1.102       .  S
C527        H533   1.110       .  S
C530        H534   1.108       .  S
C530        H535   1.109       .  S
C530        H536   1.110       .  S
C537        C538   1.543       .  S
C537        C543   1.533   1_455  S
C537        C541   1.558       .  S
C537       C1042   1.558       .  S
C538        H545   1.083       .  S
C538        C539   1.370       .  D
C539        C540   1.540       .  S
C539       C1013   1.501       .  S
C540        C544   1.539   1_455  S
C540        C542   1.536   1_455  S
C540        H546   1.104   1_455  S
C541        H547   1.084       .  S
C541        C542   1.377   1_455  D
C542       C1058   1.497       .  S
C543        H548   1.084       .  S
C543        C544   1.363       .  D
C544       C1029   1.491       .  S
C549        C550   1.540       .  S
C549        C555   1.547   1_655  S
C549        C553   1.551       .  S
C549       C1061   1.564       .  S
C550        H557   1.085       .  S
C550        C551   1.365       .  D
C551        C552   1.540       .  S
C551        C994   1.485       .  S
C552        C556   1.530   1_655  S
C552        C554   1.548       .  S
C552        H558   1.106       .  S
C553        H559   1.084       .  S
C553        C554   1.387       .  D
C554       C1045   1.525       .  S
C555        H560   1.081       .  S
C555        C556   1.359       .  D
C556        C978   1.485       .  S
O561        C564   1.266       .  A
O561       Cd566   2.486       .  S
C562        O571   1.268       .  A
C562        O567   1.263       .  A
C562        C962   1.481       .  S
O563        C569   1.265       .  A
O563       Cd566   2.492       .  S
C564        O572   1.262       .  A
C564        C946   1.487       .  S
C565        O570   1.266       .  A
C565        O568   1.267       .  A
C565        C930   1.495       .  S
Cd566       O573   2.466       .  S
Cd566       O572   2.432       .  S
Cd566       O571   2.464       .  S
Cd566       O567   2.450       .  S
Cd566       O570   2.470       .  S
Cd566       O568   2.464       .  S
C569        O573   1.262       .  A
C569        C917   1.485       .  S
O574        C577   1.263       .  A
O574       Cd579   2.455       .  S
C575        O584   1.264       .  A
C575        O580   1.265       .  A
C575        C965   1.484       .  S
O576        C582   1.264       .  A
O576       Cd579   2.450       .  S
C577        O585   1.266       .  A
C577        C949   1.487       .  S
C578        O583   1.265       .  A
C578        O581   1.264       .  A
C578       C1026   1.494       .  S
Cd579       O586   2.487       .  S
Cd579       O585   2.471       .  S
Cd579       O584   2.459       .  S
Cd579       O580   2.460       .  S
Cd579       O583   2.509       .  S
Cd579       O581   2.453       .  S
C582        O586   1.268       .  A
C582        C901   1.489       .  S
O587        C590   1.264       .  A
O587       Cd592   2.433       .  S
C588        O597   1.268       .  A
C588        O593   1.262       .  A
C588        C882   1.485       .  S
O589        C595   1.266       .  A
O589       Cd592   2.504       .  S
C590        O598   1.268       .  A
C590        C866   1.489       .  S
C591        O596   1.264       .  A
C591        O594   1.266       .  A
C591        C933   1.495       .  S
Cd592       O599   2.453       .  S
Cd592       O598   2.480       .  S
Cd592       O597   2.467       .  S
Cd592       O593   2.439       .  S
Cd592       O596   2.472       .  S
Cd592       O594   2.479       .  S
C595        O599   1.264       .  A
C595        C850   1.495       .  S
O600        C603   1.264       .  A
O600       Cd605   2.459       .  S
C601        O610   1.267       .  A
C601        O606   1.262       .  A
C601        C869   1.486       .  S
O602        C608   1.265       .  A
O602       Cd605   2.490       .  S
C603        O611   1.266       .  A
C603        C885   1.489       .  S
C604        O609   1.265       .  A
C604        O607   1.266       .  A
C604        C898   1.493       .  S
Cd605       O612   2.459       .  S
Cd605       O611   2.448       .  S
Cd605       O610   2.485       .  S
Cd605       O606   2.448       .  S
Cd605       O609   2.465       .  S
Cd605       O607   2.476       .  S
C608        O612   1.264       .  A
C608       C1010   1.488       .  S
C613        C614   1.554       .  S
C613        C619   1.539       .  S
C613        C617   1.554       .  S
C613        C834   1.566       .  S
C614        H621   1.078       .  S
C614        C615   1.366       .  D
C615        C616   1.535       .  S
C615        C802   1.490       .  S
C616        C620   1.539       .  S
C616        C618   1.536       .  S
C616        H622   1.111       .  S
C617        H623   1.084   1_565  S
C617        C618   1.376       .  D
C618        C821   1.499       .  S
C619        H624   1.086       .  S
C619        C620   1.365       .  D
C620        C786   1.491       .  S
C625        C626   1.555       .  S
C625        C631   1.538       .  S
C625        C629   1.555   1_545  S
C625        C818   1.566       .  S
C626        H633   1.079       .  S
C626        C627   1.365       .  D
C627        C628   1.530       .  S
C627        C914   1.485       .  S
C628        C632   1.536       .  S
C628        C630   1.533       .  S
C628        H634   1.111       .  S
C629        H635   1.085       .  S
C629        C630   1.378   1_565  D
C630        C837   1.498       .  S
C631        H636   1.085       .  S
C631        C632   1.364       .  D
C632        C853   1.486       .  S
O637        C640   1.264       .  A
O637       Cd642   2.456       .  S
C638        O647   1.269       .  A
C638        O643   1.260       .  A
C638        C754   1.490       .  S
O639        C645   1.267       .  A
O639       Cd642   2.494       .  S
C640        O648   1.264       .  A
C640        C773   1.483       .  S
C641        O646   1.266       .  A
C641        O644   1.266       .  A
C641        C738   1.499       .  S
Cd642       O649   2.470       .  S
Cd642       O648   2.458       .  S
Cd642       O647   2.486       .  S
Cd642       O643   2.427       .  S
Cd642       O646   2.498       .  S
Cd642       O644   2.465       .  S
C645        O649   1.263       .  A
C645        C997   1.489       .  S
O650        C653   1.267       .  A
O650       Cd655   2.480       .  S
C651        O660   1.262       .  A
C651        O656   1.267       .  A
C651        C770   1.485       .  S
O652        C658   1.267       .  A
O652       Cd655   2.515       .  S
C653        O661   1.263       .  A
C653        C757   1.483       .  S
C654        O659   1.266       .  A
C654        O657   1.268       .  A
C654        C722   1.499       .  S
Cd655       O662   2.480       .  S
Cd655       O661   2.440       .  S
Cd655       O660   2.450       .  S
Cd655       O656   2.464       .  S
Cd655       O659   2.483       .  S
Cd655       O657   2.498       .  S
C658        O662   1.265       .  A
C658        C789   1.499       .  S
O663        C666   1.262       .  A
O663       Cd668   2.445       .  S
C664        O673   1.267       .  A
C664        O669   1.264       .  A
C664        C706   1.486       .  S
O665        C671   1.264       .  A
O665       Cd668   2.509       .  S
C666        O674   1.265       .  A
C666        C693   1.484       .  S
C667        O672   1.266       .  A
C667        O670   1.265       .  A
C667        C741   1.498       .  S
Cd668       O675   2.463       .  S
Cd668       O674   2.464       .  S
Cd668       O673   2.460       .  S
Cd668       O669   2.461       .  S
Cd668       O672   2.489       .  S
Cd668       O670   2.471       .  S
C671        O675   1.264       .  A
C671        C981   1.489       .  S
O676        C679   1.262       .  A
O676       Cd681   2.453       .  S
C677        O686   1.266       .  A
C677        O682   1.263       .  A
C677        C690   1.489       .  S
O678        C684   1.265       .  A
O678       Cd681   2.488       .  S
C679        O687   1.265       .  A
C679        C709   1.483       .  S
C680        O685   1.267       .  A
C680        O683   1.268       .  A
C680        C725   1.497       .  S
Cd681       O688   2.497       .  S
Cd681       O687   2.482       .  S
Cd681       O686   2.481       .  S
Cd681       O682   2.438       .  S
Cd681       O685   2.478       .  S
Cd681       O683   2.478       .  S
C684        O688   1.264       .  A
C684        C805   1.488       .  S
C689        C690   1.408       .  A
C689        C694   1.402       .  A
C689        H696   1.083       .  S
C690        C691   1.419   1_556  A
C691        C698   1.508       .  S
C692        C693   1.409       .  A
C692        H697   1.084       .  S
C695        H700   1.110       .  S
C695        H701   1.109       .  S
C698        H702   1.110   1_554  S
C698        H703   1.110       .  S
C705        C706   1.405       .  A
C705        C710   1.403       .  A
C705        H712   1.084       .  S
C706        C707   1.418       .  A
C707        C714   1.508       .  S
C707        C708   1.405       .  A
C708        C709   1.405       .  A
C708        H713   1.084       .  S
C709        C710   1.415       .  A
C710        C711   1.508       .  S
C711        H715   1.111       .  S
C711        H716   1.111       .  S
C711        H717   1.109       .  S
C714        H718   1.110       .  S
C714        H719   1.110       .  S
C714        H720   1.111       .  S
C721        C722   1.407       .  A
C721        C726   1.409   1_655  A
C721        H728   1.084       .  S
C722        C723   1.419       .  A
C723        C730   1.507       .  S
C723        C724   1.409   1_655  A
C724        C725   1.406       .  A
C724        H729   1.084       .  S
C725        C726   1.420       .  A
C726        C727   1.509       .  S
C727        H731   1.111       .  S
C727        H732   1.110       .  S
C727        H733   1.110       .  S
C730        H734   1.110       .  S
C730        H735   1.109       .  S
C730        H736   1.111       .  S
C737        C738   1.407       .  A
C737        C742   1.406       .  A
C737        H744   1.083       .  S
C738        C739   1.420       .  A
C739        C746   1.508       .  S
C739        C740   1.410       .  A
C740        C741   1.408       .  A
C740        H745   1.084       .  S
C741        C742   1.420       .  A
C742        C743   1.509       .  S
C743        H747   1.111       .  S
C743        H748   1.110       .  S
C743        H749   1.110       .  S
C746        H750   1.110       .  S
C746        H751   1.110       .  S
C746        H752   1.111       .  S
C753        C754   1.403       .  A
C753        H760   1.083       .  S
C754        C755   1.422       .  A
C755        C762   1.510       .  S
C756        C757   1.404       .  A
C756        H761   1.084       .  S
C757        C758   1.417       .  A
C758        C759   1.508       .  S
C759        H763   1.111       .  S
C759        H764   1.111       .  S
C759        H765   1.110       .  S
C762        H766   1.111       .  S
C762        H767   1.110       .  S
C762        H768   1.111       .  S
C769        C770   1.404       .  A
C769        C774   1.402       .  A
C769        H776   1.084       .  S
C770        C771   1.419       .  A
C771        C778   1.508       .  S
C771        C772   1.404       .  A
C772        C773   1.404       .  A
C772        H777   1.084       .  S
C773        C774   1.417       .  A
C774        C775   1.509       .  S
C775        H779   1.111       .  S
C775        H780   1.110       .  S
C775        H781   1.110       .  S
C778        H782   1.110       .  S
C778        H783   1.110       .  S
C778        H784   1.111       .  S
C785        C786   1.403       .  A
C785        C790   1.411       .  A
C785        H792   1.083       .  S
C786        C787   1.415       .  A
C787        C794   1.509       .  S
C787        C788   1.405       .  A
C788        C789   1.408       .  A
C788        H793   1.084       .  S
C789        C790   1.420       .  A
C790        C791   1.506       .  S
C791        H795   1.111       .  S
C791        H796   1.110       .  S
C791        H797   1.109       .  S
C794        H798   1.107       .  S
C794        H799   1.111       .  S
C794        H800   1.110       .  S
C801        C802   1.402       .  A
C801        C806   1.407       .  A
C801        H808   1.084       .  S
C802        C803   1.416       .  A
C803        C810   1.508       .  S
C803        C804   1.406       .  A
C804        C805   1.404       .  A
C804        H809   1.084       .  S
C805        C806   1.418       .  A
C806        C807   1.507       .  S
C807        H811   1.111       .  S
C807        H812   1.110       .  S
C807        H813   1.110       .  S
C810        H814   1.107       .  S
C810        H815   1.110       .  S
C810        H816   1.111       .  S
C817        C818   1.420       .  A
C817        H824   1.074       .  S
C818        C819   1.433   1_545  A
C819        C826   1.510       .  S
C820        C821   1.403       .  A
C820        H825   1.085       .  S
C821        C822   1.406       .  A
C822        C823   1.509   1_565  S
C823        H827   1.110       .  S
C823        H828   1.109       .  S
C823        H829   1.108   1_545  S
C826        H830   1.111       .  S
C826        H831   1.102       .  S
C826        H832   1.110       .  S
C833        C834   1.421       .  A
C833        C838   1.411       .  A
C833        H840   1.073       .  S
C834        C835   1.432       .  A
C835        C842   1.512   1_565  S
C835        C836   1.415   1_565  A
C836        C837   1.402       .  A
C836        H841   1.084       .  S
C837        C838   1.407   1_545  A
C838        C839   1.508       .  S
C839        H843   1.110       .  S
C839        H844   1.109       .  S
C839        H845   1.110   1_565  S
C842        H846   1.106   1_545  S
C842        H847   1.107       .  S
C842        H848   1.111       .  S
C849        C850   1.408       .  A
C849        C854   1.403       .  A
C849        H856   1.084       .  S
C850        C851   1.421       .  A
C851        C858   1.507       .  S
C851        C852   1.409       .  A
C852        C853   1.402       .  A
C852        H857   1.084       .  S
C853        C854   1.413       .  A
C854        C855   1.509       .  S
C855        H859   1.111       .  S
C855        H860   1.107       .  S
C855        H861   1.110       .  S
C858        H862   1.110       .  S
C858        H863   1.110       .  S
C858        H864   1.111       .  S
C865        C866   1.408       .  A
C865        C870   1.403       .  A
C865        H872   1.084       .  S
C866        C867   1.417       .  A
C867        C874   1.508       .  S
C867        C868   1.406       .  A
C868        C869   1.407       .  A
C868        H873   1.084       .  S
C869        C870   1.414       .  A
C870        C871   1.508       .  S
C871        H875   1.111       .  S
C871        H876   1.110       .  S
C871        H877   1.111       .  S
C874        H878   1.110       .  S
C874        H879   1.110       .  S
C874        H880   1.111       .  S
C881        C882   1.403       .  A
C881        H888   1.084       .  S
C882        C883   1.418       .  A
C883        C890   1.509       .  S
C884        C885   1.406       .  A
C884        H889   1.084       .  S
C885        C886   1.420       .  A
C886        C887   1.508       .  S
C887        H891   1.111       .  S
C887        H892   1.110       .  S
C887        H893   1.110       .  S
C890        H894   1.110       .  S
C890        H895   1.110       .  S
C890        H896   1.111       .  S
C897        C898   1.407       .  A
C897        C902   1.406       .  A
C897        H904   1.084       .  S
C898        C899   1.419       .  A
C899        C906   1.508       .  S
C899        C900   1.406       .  A
C900        C901   1.405       .  A
C900        H905   1.084       .  S
C901        C902   1.417       .  A
C902        C903   1.509       .  S
C903        H907   1.111       .  S
C903        H908   1.111       .  S
C903        H909   1.109       .  S
C906        H910   1.110       .  S
C906        H911   1.110       .  S
C906        H912   1.111       .  S
C913        C914   1.400       .  A
C913        C918   1.404       .  A
C913        H920   1.084       .  S
C914        C915   1.415       .  A
C915        C922   1.508       .  S
C915        C916   1.406       .  A
C916        C917   1.405       .  A
C916        H921   1.084       .  S
C917        C918   1.419       .  A
C918        C919   1.508       .  S
C919        H923   1.111       .  S
C919        H924   1.110       .  S
C919        H925   1.110       .  S
C922        H926   1.108       .  S
C922        H927   1.110       .  S
C922        H928   1.111       .  S
C929        C930   1.407       .  A
C929        C934   1.406   1_655  A
C929        H936   1.084       .  S
C930        C931   1.419       .  A
C931        C938   1.508       .  S
C931        C932   1.406   1_655  A
C932        C933   1.406       .  A
C932        H937   1.084       .  S
C933        C934   1.420       .  A
C934        C935   1.508       .  S
C935        H939   1.111       .  S
C935        H940   1.110       .  S
C935        H941   1.110       .  S
C938        H942   1.110       .  S
C938        H943   1.110       .  S
C938        H944   1.111       .  S
C945        C950   1.404       .  A
C946        C947   1.417       .  A
C947        C954   1.508       .  S
C948        C949   1.404       .  A
C948        H953   1.084       .  S
C949        C950   1.418       .  A
C950        C951   1.508       .  S
C951        H955   1.111       .  S
C951        H956   1.110       .  S
C951        H957   1.110       .  S
C954        H958   1.110       .  S
C954        H959   1.110       .  S
C954        H960   1.111       .  S
C961        C962   1.402       .  A
C961        C966   1.402       .  A
C961        H968   1.084       .  S
C962        C963   1.416       .  A
C963        C970   1.508       .  S
C963        C964   1.405       .  A
C964        C965   1.406       .  A
C964        H969   1.084       .  S
C965        C966   1.417       .  A
C966        C967   1.508       .  S
C967        H971   1.111       .  S
C967        H972   1.111       .  S
C967        H973   1.110       .  S
C970        H974   1.111       .  S
C970        H975   1.109       .  S
C970        H976   1.111       .  S
C977        C978   1.403       .  A
C977        C982   1.411       .  A
C977        H984   1.084       .  S
C978        C979   1.414       .  A
C979        C986   1.509       .  S
C979        C980   1.400       .  A
C980        C981   1.404       .  A
C980        H985   1.085       .  S
C981        C982   1.419       .  A
C982        C983   1.506       .  S
C983        H987   1.111       .  S
C983        H988   1.110       .  S
C983        H989   1.110       .  S
C986        H990   1.106       .  S
C986        H991   1.111       .  S
C986        H992   1.110       .  S
C993        C994   1.400       .  A
C993        C998   1.407       .  A
C993       H1000   1.084       .  S
C994        C995   1.414       .  A
C995       C1002   1.507       .  S
C995        C996   1.405       .  A
C996        C997   1.404       .  A
C996       H1001   1.084       .  S
C997        C998   1.420       .  A
C998        C999   1.508       .  S
C999       H1003   1.111       .  S
C999       H1004   1.111       .  S
C999       H1005   1.110       .  S
C1002      H1006   1.107       .  S
C1002      H1007   1.110       .  S
C1002      H1008   1.111       .  S
C1009      C1010   1.402       .  A
C1009      C1014   1.403       .  A
C1009      H1016   1.084       .  S
C1010      C1011   1.415       .  A
C1011      C1018   1.507       .  S
C1011      C1012   1.407       .  A
C1012      C1013   1.409       .  A
C1012      H1017   1.083       .  S
C1013      C1014   1.421       .  A
C1014      C1015   1.507       .  S
C1015      H1019   1.106       .  S
C1015      H1020   1.104       .  S
C1015      H1021   1.111       .  S
C1018      H1022   1.110       .  S
C1018      H1023   1.109       .  S
C1018      H1024   1.111       .  S
C1025      C1026   1.406       .  A
C1025      C1030   1.402       .  A
C1025      H1032   1.084       .  S
C1026      C1027   1.419       .  A
C1027      C1034   1.507       .  S
C1027      C1028   1.409       .  A
C1028      C1029   1.404       .  A
C1028      H1033   1.082       .  S
C1029      C1030   1.418       .  A
C1030      C1031   1.511       .  S
C1031      H1035   1.111       .  S
C1031      H1036   1.106       .  S
C1031      H1037   1.109       .  S
C1034      H1038   1.110       .  S
C1034      H1039   1.110       .  S
C1034      H1040   1.111       .  S
C1041      C1042   1.410   1_654  A
C1041      H1048   1.082   1_554  S
C1042      C1043   1.433   1_556  A
C1043      C1050   1.510       .  S
C1044      C1045   1.406   1_455  A
C1044      H1049   1.082       .  S
C1045      C1046   1.427       .  A
C1046      C1047   1.507       .  S
C1047      H1051   1.111       .  S
C1047      H1052   1.110       .  S
C1047      H1053   1.105       .  S
C1050      H1054   1.109       .  S
C1050      H1055   1.106       .  S
C1050      H1056   1.111       .  S
C1057      C1058   1.402       .  A
C1057      C1062   1.414       .  A
C1057      H1064   1.084       .  S
C1058      C1059   1.408   1_655  A
C1059      C1066   1.507       .  S
C1059      C1060   1.409       .  A
C1060      C1061   1.418   1_455  A
C1060      H1065   1.075       .  S
C1061      C1062   1.430       .  A
C1062      C1063   1.508       .  S
C1063      H1067   1.111       .  S
C1063      H1068   1.104       .  S
C1063      H1069   1.110       .  S
C1066      H1070   1.109       .  S
C1066      H1071   1.110       .  S
C1066      H1072   1.110       .  S
