geometry optimzed in LAMMPS
_audit_creation_date              2020-11-30 
_audit_creation_method            'lammps2cif' 
_symmetry_space_group_name_H-M    'P1' 
_symmetry_Int_Tables_number       1 
_symmetry_cell_setting            triclinic 
loop_ 
_symmetry_equiv_pos_as_xyz 
  x,y,z 
_cell_length_a                    39.73348277 
_cell_length_b                    39.93283651641737 
_cell_length_c                    39.97112225926664 
_cell_angle_alpha                 90.14106859587 
_cell_angle_beta                  89.99833155991615 
_cell_angle_gamma                 89.99897280972023 
loop_ 
_atom_site_label 
_atom_site_type_symbol 
_atom_site_fract_x 
_atom_site_fract_y 
_atom_site_fract_z 
_atom_site_charge 
O1          O  0.20970267  0.18460907  0.27661282    -0.77600
C2          C  0.28513378  0.18105284  0.19703772     0.83400
O3          O  0.30704506  0.24721873  0.31728471    -0.78700
O4          O  0.30394491  0.28117552  0.20154436    -0.80200
O5          O  0.18547234  0.28028690  0.21009308    -0.80000
O6          O  0.17581115  0.22920926  0.27762705    -0.78600
Zn7        Zn  0.25457043  0.20276406  0.26277226     1.55700
O8          O  0.22763336  0.27882376  0.17363608    -0.80000
Cd9        Cd  0.20467085  0.26486546  0.25490516     1.59700
Cd10       Cd  0.28125867  0.27954826  0.28263028     1.59600
O11         O  0.20006063  0.30551769  0.28545348    -0.80000
O12         O  0.25175494  0.25014824  0.25220062    -1.90500
Cd13       Cd  0.26206785  0.25335521  0.20386072     1.59900
O14         O  0.24989767  0.31443978  0.30968733    -0.80000
O15         O  0.27620648  0.20858494  0.18375247    -0.78600
C16         C  0.30431448  0.21532099  0.32048876     0.83900
C17         C  0.18204068  0.19876758  0.28434038     0.83600
O18         O  0.27782763  0.17395981  0.22717816    -0.77600
C19         C  0.19804148  0.28772976  0.18176695     0.84400
O20         O  0.28474454  0.19819283  0.30203309    -0.77700
C21         C  0.21838994  0.32096559  0.30639073     0.84500
C22         C  0.32181731  0.30058455  0.21935729     0.84800
O23         O  0.31657909  0.30481374  0.25082288    -0.80100
O24         O  0.04340579  0.18483655  0.22663326    -0.77600
C25         C  0.47286755  0.18125989  0.30616887     0.83400
O26         O  0.44756329  0.25313673  0.19120902    -0.78700
O27         O  0.44599157  0.27747070  0.30732895    -0.80200
O28         O  0.07280802  0.27400689  0.29925762    -0.80000
O29         O  0.08264085  0.22433828  0.22869482    -0.78600
Zn30       Zn  0.50056722  0.20579229  0.24137489     1.55700
O31         O  0.02570027  0.28092577  0.32884853    -0.80000
Cd32       Cd  0.05363944  0.26096693  0.25295501     1.59700
Cd33       Cd  0.47485471  0.28230756  0.22710062     1.59600
O34         O  0.05726967  0.30274155  0.22427424    -0.80000
O35         O  0.50461066  0.25107865  0.25461268    -1.90500
Cd36       Cd  0.49126316  0.25301771  0.30199702     1.59900
O37         O  0.00739250  0.31671857  0.20207242    -0.80000
O38         O  0.48508289  0.20608878  0.32200106    -0.78600
C39         C  0.45254780  0.22206770  0.18475143     0.83900
C40         C  0.07281870  0.19529409  0.21980207     0.83600
O41         O  0.47560780  0.17832417  0.27468691    -0.77600
C42         C  0.05712704  0.28535619  0.32467586     0.84400
O43         O  0.47280559  0.20456446  0.20172347    -0.77700
C44         C  0.03923339  0.32106712  0.20539163     0.84500
C45         C  0.43279783  0.30140367  0.29099176     0.84800
O46         O  0.44165053  0.30817380  0.26081161    -0.80100
O47         O  0.20966386  0.32259783  0.48138011    -0.77600
C48         C  0.28528018  0.32593261  0.06100612     0.83400
O49         O  0.30689874  0.25991293  0.44071348    -0.78700
O50         O  0.30372965  0.22571427  0.05625155    -0.80200
O51         O  0.18531145  0.22721059  0.04787240    -0.80000
O52         O  0.17588039  0.27792396  0.47997569    -0.78600
Zn53       Zn  0.25449776  0.30440266  0.49531833     1.55700
O54         O  0.22761181  0.22834269  0.08419466    -0.80000
Cd55       Cd  0.20456624  0.24228034  0.50293924     1.59700
Cd56       Cd  0.28104494  0.22758514  0.47522960     1.59600
O57         O  0.19989441  0.20148428  0.47253801    -0.80000
O58         O  0.25166970  0.25699695  0.00572090    -1.90500
Cd59       Cd  0.26203943  0.25372439  0.05401689     1.59900
O60         O  0.24962606  0.19293011  0.44796869    -0.80000
O61         O  0.27646620  0.29833244  0.07421416    -0.78600
C62         C  0.30428707  0.29182442  0.43762859     0.83900
C63         C  0.18208976  0.30840266  0.47340471     0.83600
O64         O  0.27777630  0.33315717  0.03094674    -0.77600
C65         C  0.19796251  0.21960776  0.07612388     0.84400
O66         O  0.28479106  0.30897637  0.45614662    -0.77700
C67         C  0.21816761  0.18625051  0.45139237     0.84500
C68         C  0.32152359  0.20625674  0.03842589     0.84800
O69         O  0.31628725  0.20209011  0.00695397    -0.80100
O70         O  0.22964068  0.02951946  0.33365994    -0.77600
C71         C  0.28637689  0.43282233  0.31228252     0.83400
O72         O  0.31727487  0.05652672  0.25542518    -0.78700
O73         O  0.28428794  0.44646806  0.20648003    -0.80200
O74         O  0.17946223  0.48470547  0.22572061    -0.80000
O75         O  0.18490510  0.02478704  0.30067307    -0.78600
Zn76       Zn  0.26427831  0.00562384  0.30419510     1.55700
O77         O  0.20686984  0.43673897  0.23489334    -0.80000
Cd78       Cd  0.20642098  0.01751832  0.25469692     1.59700
Cd79       Cd  0.28164292  0.02944464  0.22558574     1.59600
O80         O  0.20323592  0.06279614  0.23067738    -0.80000
O81         O  0.25308811  0.00194420  0.25788066    -1.90500
Cd82       Cd  0.25395685  0.45324800  0.24733854     1.59900
O83         O  0.24857940  0.06176164  0.19774295    -0.80000
O84         O  0.27630340  0.42309680  0.28369851    -0.78600
C85         C  0.32224858  0.05288872  0.28694927     0.83900
C86         C  0.19869688  0.03495496  0.32760597     0.83600
O87         O  0.28054956  0.46237771  0.32286600    -0.77600
C88         C  0.18263797  0.45321920  0.22220785     0.84400
O89         O  0.30386810  0.03408677  0.30476823    -0.77700
C90         C  0.21910287  0.07289276  0.20504088     0.84500
C91         C  0.30454226  0.46374594  0.18891067     0.84800
O92         O  0.30745745  0.99558346  0.19252067    -0.80100
O93         O  0.04344255  0.32227082  0.03074566    -0.77600
C94         C  0.47286696  0.32556575  0.45133206     0.83400
O95         O  0.44790493  0.25374895  0.06639611    -0.78700
O96         O  0.44602691  0.22924893  0.45035220    -0.80200
O97         O  0.07271792  0.23349757  0.45806047    -0.80000
O98         O  0.08262137  0.28270887  0.02885944    -0.78600
Zn99       Zn  0.50068059  0.30116380  0.01606499     1.55700
O100        O  0.02546346  0.22601235  0.42883987    -0.80000
Cd101      Cd  0.05365545  0.24614498  0.00449985     1.59700
Cd102      Cd  0.47511566  0.22454769  0.03045089     1.59600
O103        O  0.05756930  0.20419344  0.03291802    -0.80000
O104        O  0.00470323  0.25591365  0.00299564    -1.90500
Cd105      Cd  0.49120451  0.25383104  0.45563567     1.59900
O106        O  0.00779300  0.19030604  0.05540086    -0.80000
O107        O  0.48498030  0.30067484  0.43552756    -0.78600
C108        C  0.45284828  0.28483389  0.07284134     0.83900
C109        C  0.07282491  0.31178482  0.03766250     0.83600
O110        O  0.47567895  0.32857138  0.48280094    -0.77600
C111        C  0.05694509  0.22186976  0.43282829     0.84400
O112        O  0.47302185  0.30238882  0.05581321    -0.77700
C113        C  0.03960276  0.18590211  0.05190192     0.84500
C114        C  0.43303884  0.20520622  0.46667989     0.84800
O115        O  0.44196671  0.19846338  0.99683412    -0.80100
O116        O  0.02592737  0.02890100  0.17683406    -0.77600
C117        C  0.47177809  0.43294943  0.19666883     0.85000
O118        O  0.44068387  0.05928903  0.24835561    -0.78700
O119        O  0.47315445  0.45217177  0.30229387    -0.80200
O120        O  0.08226333  0.47602612  0.27877389    -0.80000
O121        O  0.07324352  0.02184991  0.20600328    -0.78600
Zn122      Zn  0.49045440  0.00537454  0.20335370     1.55700
O123        O  0.04599205  0.43384085  0.27769990    -0.80000
Cd124      Cd  0.05346561  0.01133828  0.25227685     1.59700
Cd125      Cd  0.47522302  0.03192790  0.27925533     1.59600
O126        O  0.05739517  0.05392250  0.27965305    -0.80000
O127        O  0.00443325  0.00217851  0.24926346    -1.90500
Cd128      Cd  0.50228329  0.45508626  0.26186772     1.59900
O129        O  0.00821641  0.06551417  0.30463792    -0.80000
O130        O  0.47892877  0.42656265  0.22688083    -0.78600
C131        C  0.43398051  0.05555409  0.21713156     0.83900
C132        C  0.05745934  0.03276875  0.18055079     0.83600
O133        O  0.47851627  0.46092112  0.18307752    -0.77600
C134        C  0.07396340  0.44630272  0.28670680     0.84400
O135        O  0.44965311  0.03442377  0.19912324    -0.77700
C136        C  0.03970968  0.07095915  0.30008041     0.84500
C137        C  0.45345583  0.46978783  0.31991156     0.84800
O138        O  0.44913314  0.50116581  0.31460499    -0.80100
O139        O  0.22988599  0.47742901  0.42418322    -0.77600
C140        C  0.28651770  0.07396313  0.44560659     0.83400
O141        O  0.31740953  0.45028953  0.00228206    -0.78700
O142        O  0.28382725  0.06029596  0.05168994    -0.80200
O143        O  0.17964452  0.02216546  0.03217377    -0.80000
O144        O  0.18503616  0.48263976  0.45693351    -0.78600
Zn145      Zn  0.26445587  0.50131190  0.45363648     1.55700
O146        O  0.20676184  0.07014846  0.02235782    -0.80000
Cd147      Cd  0.20660530  0.48934822  0.00299253     1.59700
Cd148      Cd  0.28175105  0.47734240  0.03214854     1.59600
O149        O  0.20345845  0.44384204  0.02661939    -0.80000
O150        O  0.25321014  0.00486081  0.99993353    -1.90500
Cd151      Cd  0.25396325  0.05354885  0.01050876     1.59900
O152        O  0.24854175  0.44510243  0.05989289    -0.80000
O153        O  0.27665489  0.08361233  0.47429385    -0.78600
C154        C  0.32240527  0.45406545  0.47079006     0.83900
C155        C  0.19887853  0.47225352  0.43010793     0.83600
O156        O  0.28047062  0.04449907  0.43491634    -0.77600
C157        C  0.18269866  0.05369522  0.03538145     0.84400
O158        O  0.30405697  0.47292832  0.45301182    -0.77700
C159        C  0.21913967  0.43388819  0.05242680     0.84500
C160        C  0.30420805  0.04302478  0.06911897     0.84800
O161        O  0.30740056  0.01121936  0.06527025    -0.80100
O162        O  0.02590893  0.47830619  0.08080627    -0.77600
C163        C  0.47140150  0.07400221  0.06091133     0.83400
O164        O  0.44088022  0.44758268  0.00934377    -0.78700
O165        O  0.47306202  0.05470801  0.45531771    -0.80200
O166        O  0.08211353  0.03111541  0.47876764    -0.80000
O167        O  0.07321930  0.48542287  0.05164565    -0.78600
Zn168      Zn  0.49047082  0.50167973  0.05431605     1.55700
O169        O  0.04587315  0.07332888  0.48004520    -0.80000
Cd170      Cd  0.05338385  0.49583895  0.00538022     1.59700
Cd171      Cd  0.47531337  0.47509067  0.47848270     1.59600
O172        O  0.05746618  0.45325450  0.47800090    -0.80000
O173        O  0.00439424  0.00488846  0.00840390    -1.90500
Cd174      Cd  0.50209868  0.05193518  0.49581794     1.59900
O175        O  0.00833478  0.44159874  0.45296487    -0.80000
O176        O  0.47858445  0.08043654  0.03071585    -0.78600
C177        C  0.43420583  0.45126158  0.04058139     0.83900
C178        C  0.05744187  0.47447713  0.07708981     0.83600
O179        O  0.47818370  0.04603652  0.07449250    -0.77600
C180        C  0.07380739  0.06086213  0.47093187     0.84400
O181        O  0.44983476  0.47242448  0.05858429    -0.77700
C182        C  0.03983593  0.43621531  0.45753514     0.84500
C183        C  0.45340437  0.03702376  0.43772555     0.84800
O184        O  0.44909358  0.00565929  0.44311725    -0.80100
O185        O  0.40263395  0.29843252  0.10291063    -0.77600
C186        C  0.34614329  0.32018378  0.19975457     0.83400
O187        O  0.31531800  0.37693093  0.07611630    -0.78700
O188        O  0.34865248  0.42613197  0.18602258    -0.80200
O189        O  0.45317202  0.40644392  0.14742237    -0.80000
O190        O  0.44752141  0.33119537  0.10777583    -0.78600
Zn191      Zn  0.36823202  0.32807551  0.12702221     1.55700
O192        O  0.42594057  0.39715713  0.19543808    -0.80000
Cd193      Cd  0.42606543  0.37733904  0.11469456     1.59700
Cd194      Cd  0.35099067  0.40680457  0.10307823     1.59600
O195        O  0.42912756  0.40107704  0.06922768    -0.80000
O196        O  0.37946281  0.37441307  0.13051395    -1.90500
Cd197      Cd  0.37871474  0.38506200  0.17917167     1.59900
O198        O  0.38414451  0.43449963  0.07069999    -0.80000
O199        O  0.35615478  0.34885217  0.20939049    -0.78600
C200        C  0.31025851  0.34540447  0.07987508     0.83900
C201        C  0.43360454  0.30435387  0.09747583     0.83600
O202        O  0.35211233  0.30946664  0.17030922    -0.77600
C203        C  0.45009994  0.40989636  0.17890086     0.84400
O204        O  0.32857429  0.32759019  0.09874068    -0.77700
C205        C  0.41347465  0.42695574  0.05934741     0.84500
C206        C  0.32831624  0.44364263  0.16878704     0.84800
O207        O  0.32526017  0.43993633  0.13697858    -0.80100
O208        O  0.42257754  0.15148648  0.31003644    -0.77600
C209        C  0.34727445  0.07174473  0.30637510     0.83400
O210        O  0.32486194  0.19160196  0.37264284    -0.78700
O211        O  0.32835926  0.07587053  0.40623061    -0.80200
O212        O  0.44709528  0.08478112  0.40534772    -0.80000
O213        O  0.45663159  0.15232240  0.35446838    -0.78600
Zn214      Zn  0.37773225  0.13755236  0.32816749     1.55700
O215        O  0.40474611  0.04848359  0.40427213    -0.80000
Cd216      Cd  0.42775348  0.12956808  0.39005162     1.59700
Cd217      Cd  0.35102333  0.15709288  0.40484762     1.59600
O218        O  0.43233690  0.16002529  0.43072212    -0.80000
O219        O  0.38061112  0.12683794  0.37542820    -1.90500
Cd220      Cd  0.37032216  0.07847119  0.37856260     1.59900
O221        O  0.38248260  0.18433180  0.43948693    -0.80000
O222        O  0.35641250  0.05832381  0.33375541    -0.78600
C223        C  0.32768578  0.19499426  0.34080247     0.83900
C224        C  0.45032200  0.15909873  0.32408847     0.83600
O225        O  0.35445425  0.10196873  0.29939680    -0.77600
C226        C  0.43437965  0.05657494  0.41306235     0.84400
O227        O  0.34745990  0.17675994  0.32367404    -0.77700
C228        C  0.41398237  0.18102415  0.44606401     0.84500
C229        C  0.31069609  0.09360964  0.42588538     0.84800
O230        O  0.31603493  0.12506769  0.43027148    -0.80100
O231        O  0.08866234  0.40550779  0.44760828    -0.77600
C232        C  0.15967373  0.32628916  0.45108119     0.83400
O233        O  0.18462739  0.44121847  0.37957528    -0.78700
O234        O  0.18603615  0.32509605  0.35434985    -0.80200
O235        O  0.05947027  0.33311027  0.35885407    -0.80000
O236        O  0.04970944  0.40393694  0.40785638    -0.78600
Zn237      Zn  0.13156535  0.39105311  0.42669954     1.55700
O238        O  0.10662946  0.30370576  0.35151722    -0.80000
Cd239      Cd  0.07877939  0.37944507  0.37153875     1.59700
Cd240      Cd  0.15743562  0.40542496  0.35025829     1.59600
O241        O  0.07514188  0.40782791  0.32963720    -0.80000
O242        O  0.12772011  0.37785372  0.38142060    -1.90500
Cd243      Cd  0.14111008  0.33048992  0.37927429     1.59900
O244        O  0.12492161  0.43047072  0.31601091    -0.80000
O245        O  0.14784863  0.31044757  0.42607654    -0.78600
C246        C  0.17950138  0.44777563  0.41057368     0.83900
C247        C  0.05936899  0.41258076  0.43699463     0.83600
O248        O  0.15659924  0.35776062  0.45416707    -0.77600
C249        C  0.07517382  0.30781315  0.34725107     0.84400
O250        O  0.15912297  0.43090318  0.42804288    -0.77700
C251        C  0.09314307  0.42688027  0.31146383     0.84500
C252        C  0.19929763  0.34156254  0.33056840     0.84800
O253        O  0.19062789  0.37188348  0.32408405    -0.80100
O254        O  0.08850900  0.10170262  0.31004993    -0.77600
C255        C  0.15953424  0.18091661  0.30659354     0.83400
O256        O  0.18443900  0.06597528  0.37817630    -0.78700
O257        O  0.18577356  0.18222788  0.40341885    -0.80200
O258        O  0.05928792  0.17402727  0.39883849    -0.80000
O259        O  0.04948404  0.10330986  0.34972928    -0.78600
Zn260      Zn  0.13138824  0.11618568  0.33100253     1.55700
O261        O  0.10640065  0.20357421  0.40595878    -0.80000
Cd262      Cd  0.07855400  0.12772636  0.38609101     1.59700
Cd263      Cd  0.15723170  0.10182853  0.40742796     1.59600
O264        O  0.07489471  0.09927488  0.42794459    -0.80000
O265        O  0.12750874  0.12939438  0.37626129    -1.90500
Cd266      Cd  0.14091342  0.17677132  0.37835245     1.59900
O267        O  0.12472877  0.07680897  0.44167550    -0.80000
O268        O  0.14765181  0.19678766  0.33154874    -0.78600
C269        C  0.17933627  0.05944543  0.34716971     0.83900
C270        C  0.05919621  0.09464064  0.32061424     0.83600
O271        O  0.15647031  0.14944251  0.30354393    -0.77600
C272        C  0.07497169  0.19939740  0.41030160     0.84400
O273        O  0.15897738  0.07635438  0.32971189    -0.77700
C274        C  0.09293368  0.08030222  0.44616406     0.84500
C275        C  0.19904829  0.16572156  0.42717089     0.84800
O276        O  0.19040783  0.13537936  0.43359171    -0.80100
O277        O  0.10685274  0.45564323  0.10321457    -0.77600
C278        C  0.16095014  0.43543904  0.19916531     0.83400
O279        O  0.19131159  0.38401745  0.07271981    -0.78700
O280        O  0.15909279  0.32975435  0.17968114    -0.80200
O281        O  0.05009791  0.35373886  0.15620087    -0.80000
O282        O  0.05938159  0.42678638  0.11065992    -0.78600
Zn283      Zn  0.14210561  0.42902410  0.12689169     1.55700
O284        O  0.08644215  0.35475377  0.19828805    -0.80000
Cd285      Cd  0.07889496  0.38028871  0.12088573     1.59700
Cd286      Cd  0.15695293  0.35306332  0.10015948     1.59600
O287        O  0.07475158  0.35297942  0.07821924    -0.80000
O288        O  0.12794784  0.38308587  0.12994679    -1.90500
Cd289      Cd  0.13019628  0.37035533  0.17691037     1.59900
O290        O  0.12381943  0.32769769  0.06672890    -0.80000
O291        O  0.15397934  0.40512100  0.20537591    -0.78600
C292        C  0.19840319  0.41515146  0.07670795     0.83900
C293        C  0.07528191  0.45208690  0.09950625     0.83600
O294        O  0.15391726  0.44921633  0.17137494    -0.77600
C295        C  0.05842452  0.34579940  0.18589930     0.84400
O296        O  0.18310768  0.43316200  0.09810678    -0.77700
C297        C  0.09234411  0.33239041  0.06126614     0.84500
C298        C  0.17889535  0.31224222  0.16208610     0.84800
O299        O  0.18327185  0.31768289  0.13076380    -0.80100
O300        O  0.40230509  0.20843660  0.15474898    -0.77600
C301        C  0.34576084  0.18657474  0.05803387     0.83400
O302        O  0.31508134  0.13000274  0.18188574    -0.78700
O303        O  0.34827675  0.08063124  0.07193688    -0.80200
O304        O  0.45284776  0.10050002  0.11016068    -0.80000
O305        O  0.44715851  0.17560933  0.14998216    -0.78600
Zn306      Zn  0.36787484  0.17874269  0.13077925     1.55700
O307        O  0.42543287  0.10962291  0.06222451    -0.80000
Cd308      Cd  0.42574609  0.12948164  0.14298072     1.59700
Cd309      Cd  0.35066270  0.10008419  0.15483273     1.59600
O310        O  0.42894077  0.10563033  0.18834992    -0.80000
O311        O  0.37911221  0.13241391  0.12729768    -1.90500
Cd312      Cd  0.37828154  0.12173068  0.07864372     1.59900
O313        O  0.38383415  0.07235872  0.18715773    -0.80000
O314        O  0.35572024  0.15789371  0.04839238    -0.78600
C315        C  0.31003478  0.16153053  0.17811487     0.83900
C316        C  0.43326700  0.20249507  0.16019705     0.83600
O317        O  0.35172410  0.19726499  0.08748863    -0.77600
C318        C  0.44968706  0.09699482  0.07870022     0.84400
O319        O  0.32829786  0.17930655  0.15916609    -0.77700
C320        C  0.41323667  0.07983677  0.19836239     0.84500
C321        C  0.32795163  0.06315631  0.08921570     0.84800
O322        O  0.32487221  0.06694044  0.12101173    -0.80100
O323        O  0.10690350  0.05153592  0.15442970    -0.77600
C324        C  0.16109388  0.07159253  0.05841398     0.83400
O325        O  0.19138212  0.12286284  0.18485025    -0.78700
O326        O  0.15918907  0.17747177  0.07804400    -0.80200
O327        O  0.05044581  0.15329797  0.10108983    -0.80000
O328        O  0.05944212  0.08033579  0.14676877    -0.78600
Zn329      Zn  0.14215612  0.07803152  0.13059564     1.55700
O330        O  0.08683370  0.15221077  0.05903795    -0.80000
Cd331      Cd  0.07906446  0.12679519  0.13652318     1.59700
Cd332      Cd  0.15706368  0.15394924  0.15749343     1.59600
O333        O  0.07479857  0.15420369  0.17912500    -0.80000
O334        O  0.12811934  0.12399248  0.12759034    -1.90500
Cd335      Cd  0.13052350  0.13674635  0.08065212     1.59900
O336        O  0.12389441  0.17927806  0.19092189    -0.80000
O337        O  0.15451462  0.10202354  0.05233008    -0.78600
C338        C  0.19850246  0.09174675  0.18073508     0.83900
C339        C  0.07532401  0.05509343  0.15807418     0.83600
O340        O  0.15369073  0.05774110  0.08607288    -0.77600
C341        C  0.05881036  0.16119539  0.07139372     0.84400
O342        O  0.18325893  0.07381537  0.15923158    -0.77700
C343        C  0.09237509  0.17469390  0.19621447     0.84500
C344        C  0.17889818  0.19499878  0.09571462     0.84800
O345        O  0.18331331  0.18945420  0.12701081    -0.80100
O346        O  0.42267371  0.35545879  0.44754970    -0.77600
C347        C  0.34738549  0.43520247  0.45130971     0.83400
O348        O  0.32482728  0.31526960  0.38539197    -0.78700
O349        O  0.32843864  0.43089097  0.35140106    -0.80200
O350        O  0.44700698  0.42184166  0.35200272    -0.80000
O351        O  0.45656529  0.35437600  0.40299252    -0.78600
Zn352      Zn  0.37782319  0.36943241  0.42956780     1.55700
O353        O  0.40483164  0.45832285  0.35343304    -0.80000
Cd354      Cd  0.42764840  0.37711884  0.36745372     1.59700
Cd355      Cd  0.35088985  0.34961905  0.35299512     1.59600
O356        O  0.43209333  0.34662075  0.32684450    -0.80000
O357        O  0.38057534  0.37994772  0.38224977    -1.90500
Cd358      Cd  0.37036475  0.42831650  0.37907020     1.59900
O359        O  0.38224956  0.32221685  0.31833050    -0.80000
O360        O  0.35630209  0.44850501  0.42380089    -0.78600
C361        C  0.32763955  0.31207257  0.41724870     0.83900
C362        C  0.45033993  0.34772514  0.43341803     0.83600
O363        O  0.35474526  0.40505769  0.45840940    -0.77600
C364        C  0.43439654  0.45014751  0.34448655     0.84400
O365        O  0.34743494  0.33036880  0.43428173    -0.77700
C366        C  0.41372558  0.32555298  0.31163202     0.84500
C367        C  0.31058467  0.41313817  0.33194215     0.84800
O368        O  0.31577439  0.38163294  0.32767224    -0.80100
O369        O  0.20968241  0.18465019  0.77664217    -0.77600
C370        C  0.28511908  0.18107576  0.69705500     0.83400
O371        O  0.30703022  0.24721581  0.81731995    -0.78700
O372        O  0.30395507  0.28119077  0.70159974    -0.80200
O373        O  0.18548167  0.28031224  0.71009195    -0.80000
O374        O  0.17579519  0.22925437  0.77764663    -0.78600
Zn375      Zn  0.25455076  0.20278579  0.76278516     1.55700
O376        O  0.22765822  0.27886719  0.67365221    -0.80000
Cd377      Cd  0.20466617  0.26490517  0.75491817     1.59700
Cd378      Cd  0.28125438  0.27955422  0.78267011     1.59600
O379        O  0.20006070  0.30557351  0.78545534    -0.80000
O380        O  0.25174788  0.25017279  0.75222494    -1.90500
Cd381      Cd  0.26207493  0.25338698  0.70389013     1.59900
O382        O  0.24989003  0.31443044  0.80973176    -0.80000
O383        O  0.27622408  0.20862324  0.68378038    -0.78600
C384        C  0.30430499  0.21531599  0.82050090     0.83900
C385        C  0.18202199  0.19881288  0.78436726     0.83600
O386        O  0.27778541  0.17397069  0.72718567    -0.77600
C387        C  0.19805936  0.28776184  0.68177070     0.84400
O388        O  0.28473903  0.19819795  0.80203202    -0.77700
C389        C  0.21839145  0.32098839  0.80641675     0.84500
C390        C  0.32183174  0.30059183  0.71941469     0.84800
O391        O  0.31658993  0.30482335  0.75087958    -0.80100
O392        O  0.04341784  0.18483570  0.72668981    -0.77600
C393        C  0.47284149  0.18125971  0.80614339     0.83400
O394        O  0.44756938  0.25312731  0.69116616    -0.78700
O395        O  0.44584835  0.27739470  0.80721937    -0.80200
O396        O  0.07286192  0.27401955  0.79925939    -0.80000
O397        O  0.08264063  0.22435463  0.72868749    -0.78600
Zn398      Zn  0.50055134  0.20578158  0.74135361     1.55700
O399        O  0.02577078  0.28090710  0.82888447    -0.80000
Cd400      Cd  0.05366462  0.26098595  0.75296633     1.59700
Cd401      Cd  0.47486125  0.28230288  0.72705620     1.59600
O402        O  0.05728540  0.30276176  0.72428276    -0.80000
O403        O  0.50458124  0.25106758  0.75458549    -1.90500
Cd404      Cd  0.49117524  0.25302370  0.80195052     1.59900
O405        O  0.00740134  0.31672886  0.70209229    -0.80000
O406        O  0.48504575  0.20609769  0.82196942    -0.78600
C407        C  0.45254302  0.22205323  0.68472123     0.83900
C408        C  0.07281796  0.19530292  0.71982017     0.83600
O409        O  0.47559048  0.17831255  0.77466334    -0.77600
C410        C  0.05719357  0.28534761  0.82469468     0.84400
O411        O  0.47279392  0.20454865  0.70170038    -0.77700
C412        C  0.03924227  0.32108275  0.70540195     0.84500
C413        C  0.43273875  0.30138723  0.79090399     0.84800
O414        O  0.44167025  0.30819689  0.76075598    -0.80100
O415        O  0.20967829  0.32259174  0.98138961    -0.77600
C416        C  0.28524731  0.32590438  0.56103462     0.83400
O417        O  0.30691300  0.25990129  0.94070260    -0.78700
O418        O  0.30365006  0.22565821  0.55626240    -0.80200
O419        O  0.18526196  0.22716471  0.54782184    -0.80000
O420        O  0.17589928  0.27791488  0.98000134    -0.78600
Zn421      Zn  0.25452309  0.30440308  0.99530160     1.55700
O422        O  0.22752390  0.22834349  0.58418707    -0.80000
Cd423      Cd  0.20459999  0.24228557  0.00297016     1.59700
Cd424      Cd  0.28106443  0.22758236  0.97522759     1.59600
O425        O  0.19991427  0.20147420  0.97259099    -0.80000
O426        O  0.25163507  0.25699109  0.50572134    -1.90500
Cd427      Cd  0.26197986  0.25370088  0.55402269     1.59900
O428        O  0.24962680  0.19293622  0.94797632    -0.80000
O429        O  0.27644353  0.29829399  0.57422840    -0.78600
C430        C  0.30429032  0.29180991  0.93759979     0.83900
C431        C  0.18210193  0.30839402  0.97342681     0.83600
O432        O  0.27773197  0.33314651  0.53098238    -0.77600
C433        C  0.19788866  0.21958536  0.57609058     0.84400
O434        O  0.28479191  0.30896731  0.95611033    -0.77700
C435        C  0.21817207  0.18625121  0.95142418     0.84500
C436        C  0.32147265  0.20622812  0.53843499     0.84800
O437        O  0.31626781  0.20209037  0.50695430    -0.80100
O438        O  0.22961064  0.02952023  0.83366628    -0.77600
C439        C  0.28634534  0.43281738  0.81228777     0.83400
O440        O  0.31724556  0.05652081  0.75541542    -0.78700
O441        O  0.28422132  0.44645162  0.70648612    -0.80200
O442        O  0.17942059  0.48471548  0.72573881    -0.80000
O443        O  0.18487296  0.02481254  0.80067739    -0.78600
Zn444      Zn  0.26424711  0.00562649  0.80419851     1.55700
O445        O  0.20681285  0.43674402  0.73492668    -0.80000
Cd446      Cd  0.20638502  0.01751794  0.75470089     1.59700
Cd447      Cd  0.28160609  0.02944264  0.72558050     1.59600
O448        O  0.20319078  0.06278461  0.73066442    -0.80000
O449        O  0.25305408  0.00194589  0.75788377    -1.90500
Cd450      Cd  0.25390454  0.45324630  0.74735567     1.59900
O451        O  0.24853942  0.06176168  0.69773655    -0.80000
O452        O  0.27625871  0.42309397  0.78370663    -0.78600
C453        C  0.32221821  0.05288662  0.78694024     0.83900
C454        C  0.19866911  0.03496960  0.82761279     0.83600
O455        O  0.28052181  0.46237048  0.82287790    -0.77600
C456        C  0.18259221  0.45322898  0.72222670     0.84400
O457        O  0.30383350  0.03409191  0.80476216    -0.77700
C458        C  0.21905867  0.07288569  0.70503042     0.84500
C459        C  0.30448730  0.46372359  0.68892403     0.84800
O460        O  0.30741924  0.99557462  0.69251803    -0.80100
O461        O  0.04348447  0.32230288  0.53066503    -0.77600
C462        C  0.47285773  0.32552339  0.95126939     0.83400
O463        O  0.44790248  0.25372978  0.56641899    -0.78700
O464        O  0.44601658  0.22921902  0.95033766    -0.80200
O465        O  0.07266660  0.23352748  0.95805723    -0.80000
O466        O  0.08262196  0.28269427  0.52887891    -0.78600
Zn467      Zn  0.50068143  0.30116750  0.51611729     1.55700
O468        O  0.02539101  0.22598124  0.92888595    -0.80000
Cd469      Cd  0.05367216  0.24613061  0.50449043     1.59700
Cd470      Cd  0.47513774  0.22454631  0.53047055     1.59600
O471        O  0.05754028  0.20417394  0.53291202    -0.80000
O472        O  0.00472450  0.25592007  0.50294958    -1.90500
Cd473      Cd  0.49119125  0.25379849  0.95561297     1.59900
O474        O  0.00774302  0.19030475  0.55535978    -0.80000
O475        O  0.48496844  0.30062459  0.93547752    -0.78600
C476        C  0.45283672  0.28481414  0.57287537     0.83900
C477        C  0.07284528  0.31179189  0.53763595     0.83600
O478        O  0.47567393  0.32854727  0.98273637    -0.77600
C479        C  0.05688104  0.22187044  0.93284702     0.84400
O480        O  0.47301372  0.30237581  0.55585883    -0.77700
C481        C  0.03955288  0.18588659  0.55188113     0.84500
C482        C  0.43301554  0.20519079  0.96667490     0.84800
O483        O  0.44200225  0.19846570  0.49683342    -0.80100
O484        O  0.02589278  0.02889651  0.67690316    -0.77600
C485        C  0.47175409  0.43298448  0.69662702     0.85000
O486        O  0.44066630  0.05925253  0.74836189    -0.78700
O487        O  0.47322821  0.45213540  0.80229221    -0.80200
O488        O  0.08224194  0.47602054  0.77884152    -0.80000
O489        O  0.07322498  0.02183624  0.70604183    -0.78600
Zn490      Zn  0.49043792  0.00536498  0.70332172     1.55700
O491        O  0.04598024  0.43382786  0.77772960    -0.80000
Cd492      Cd  0.05346438  0.01131526  0.75232515     1.59700
Cd493      Cd  0.47522800  0.03188758  0.77924051     1.59600
O494        O  0.05740626  0.05389424  0.77971256    -0.80000
O495        O  0.00443094  0.00216751  0.74933273    -1.90500
Cd496      Cd  0.50231192  0.45507801  0.76182160     1.59900
O497        O  0.00822716  0.06550272  0.80469099    -0.80000
O498        O  0.47890489  0.42659670  0.72683888    -0.78600
C499        C  0.43395414  0.05553173  0.71713731     0.83900
C500        C  0.05742539  0.03276429  0.68060208     0.83600
O501        O  0.47850806  0.46095056  0.68303011    -0.77600
C502        C  0.07394804  0.44628835  0.78674750     0.84400
O503        O  0.44963017  0.03441565  0.69911445    -0.77700
C504        C  0.03972145  0.07093945  0.80013414     0.84500
C505        C  0.45350549  0.46974470  0.81989355     0.84800
O506        O  0.44915916  0.50111740  0.81457102    -0.80100
O507        O  0.22991391  0.47738961  0.92420250    -0.77600
C508        C  0.28654630  0.07393617  0.94560566     0.83400
O509        O  0.31738358  0.45033046  0.50229713    -0.78700
O510        O  0.28376625  0.06032738  0.55170584    -0.80200
O511        O  0.17961143  0.02215211  0.53218535    -0.80000
O512        O  0.18505452  0.48265231  0.95693061    -0.78600
Zn513      Zn  0.26448198  0.50127985  0.95364560     1.55700
O514        O  0.20669646  0.07014954  0.52234548    -0.80000
Cd515      Cd  0.20659244  0.48935071  0.50299116     1.59700
Cd516      Cd  0.28172476  0.47738726  0.53214849     1.59600
O517        O  0.20346993  0.44383880  0.52660993    -0.80000
O518        O  0.25317198  0.00488677  0.49992683    -1.90500
Cd519      Cd  0.25391354  0.05357408  0.51050877     1.59900
O520        O  0.24852801  0.44515631  0.55991074    -0.80000
O521        O  0.27669142  0.08358557  0.97429412    -0.78600
C522        C  0.32243519  0.45403576  0.97077598     0.83900
C523        C  0.19890060  0.47224021  0.93011754     0.83600
O524        O  0.28050204  0.04447054  0.93491850    -0.77600
C525        C  0.18264808  0.05368483  0.53538377     0.84400
O526        O  0.30408994  0.47290715  0.95300471    -0.77700
C527        C  0.21913908  0.43391652  0.55243600     0.84500
C528        C  0.30416318  0.04305679  0.56911857     0.84800
O529        O  0.30737274  0.01125653  0.56525025    -0.80100
O530        O  0.02591702  0.47831622  0.58077588    -0.77600
C531        C  0.47138450  0.07395115  0.56094926     0.83400
O532        O  0.44087154  0.44756585  0.50935963    -0.78700
O533        O  0.47308055  0.05473245  0.95527512    -0.80200
O534        O  0.08211205  0.03113424  0.97881226    -0.80000
O535        O  0.07323089  0.48542691  0.55161907    -0.78600
Zn536      Zn  0.49045372  0.50165115  0.55435329     1.55700
O537        O  0.04585392  0.07333282  0.98006187    -0.80000
Cd538      Cd  0.05340056  0.49584206  0.50535065     1.59700
Cd539      Cd  0.47530997  0.47510459  0.97845744     1.59600
O540        O  0.05745908  0.45325763  0.97801883    -0.80000
O541        O  0.00441184  0.00489312  0.50838539    -1.90500
Cd542      Cd  0.50210364  0.05196749  0.99578556     1.59900
O543        O  0.00833593  0.44160843  0.95296354    -0.80000
O544        O  0.47858060  0.08039360  0.53075842    -0.78600
C545        C  0.43418584  0.45123703  0.54059640     0.83900
C546        C  0.05744903  0.47448122  0.57706105     0.83600
O547        O  0.47815837  0.04597992  0.57452449    -0.77600
C548        C  0.07379942  0.06087655  0.97096691     0.84400
O549        O  0.44981157  0.47239459  0.55860912    -0.77700
C550        C  0.03983606  0.43622266  0.95754324     0.84500
C551        C  0.45341800  0.03704497  0.93769130     0.84800
O552        O  0.44909474  0.00568637  0.94309901    -0.80100
O553        O  0.40261036  0.29840304  0.60293916    -0.77600
C554        C  0.34615803  0.32018380  0.69980705     0.83400
O555        O  0.31529040  0.37689874  0.57614172    -0.78700
O556        O  0.34859467  0.42610387  0.68604061    -0.80200
O557        O  0.45313283  0.40645815  0.64739348    -0.80000
O558        O  0.44749018  0.33117475  0.60780894    -0.78600
Zn559      Zn  0.36820551  0.32805296  0.62705137     1.55700
O560        O  0.42590671  0.39720801  0.69542053    -0.80000
Cd561      Cd  0.42602530  0.37732190  0.61469059     1.59700
Cd562      Cd  0.35095842  0.40678433  0.60309585     1.59600
O563        O  0.42907246  0.40102613  0.56920060    -0.80000
O564        O  0.37942965  0.37439378  0.63053075    -1.90500
Cd565      Cd  0.37868905  0.38505885  0.67918686     1.59900
O566        O  0.38412114  0.43448575  0.57072253    -0.80000
O567        O  0.35617860  0.34884955  0.70943878    -0.78600
C568        C  0.31022495  0.34537359  0.57990784     0.83900
C569        C  0.43358130  0.30432920  0.59750803     0.83600
O570        O  0.35210637  0.30946780  0.67035648    -0.77600
C571        C  0.45006345  0.40993459  0.67887005     0.84400
O572        O  0.32853696  0.32755870  0.59877785    -0.77700
C573        C  0.41344033  0.42692827  0.55934900     0.84500
C574        C  0.32826175  0.44361581  0.66880329     0.84800
O575        O  0.32521723  0.43991527  0.63699297    -0.80100
O576        O  0.42256135  0.15146908  0.81001310    -0.77600
C577        C  0.34725091  0.07173664  0.80636263     0.83400
O578        O  0.32485765  0.19159066  0.87264799    -0.78700
O579        O  0.32837923  0.07585172  0.90622501    -0.80200
O580        O  0.44710497  0.08479255  0.90530478    -0.80000
O581        O  0.45660613  0.15234223  0.85445121    -0.78600
Zn582      Zn  0.37771795  0.13753825  0.82815381     1.55700
O583        O  0.40476159  0.04848710  0.90423848    -0.80000
Cd584      Cd  0.42774274  0.12957408  0.89003156     1.59700
Cd585      Cd  0.35101744  0.15707575  0.90484202     1.59600
O586        O  0.43231992  0.16001894  0.93071058    -0.80000
O587        O  0.38060318  0.12682871  0.87541289    -1.90500
Cd588      Cd  0.37032569  0.07846166  0.87854019     1.59900
O589        O  0.38246142  0.18430922  0.93949162    -0.80000
O590        O  0.35639229  0.05831363  0.83374076    -0.78600
C591        C  0.32767390  0.19498069  0.84080703     0.83900
C592        C  0.45029992  0.15909969  0.82406698     0.83600
O593        O  0.35443493  0.10195911  0.79938394    -0.77600
C594        C  0.43439395  0.05658633  0.91302411     0.84400
O595        O  0.34744101  0.17674324  0.82367347    -0.77700
C596        C  0.41396182  0.18100691  0.94606283     0.84500
C597        C  0.31071302  0.09358656  0.92587969     0.84800
O598        O  0.31603940  0.12504653  0.93026253    -0.80100
O599        O  0.08866859  0.40551804  0.94762857    -0.77600
C600        C  0.15967585  0.32627996  0.95111229     0.83400
O601        O  0.18463248  0.44120781  0.87959163    -0.78700
O602        O  0.18612358  0.32514171  0.85443624    -0.80200
O603        O  0.05952105  0.33306183  0.85892432    -0.80000
O604        O  0.04972071  0.40392932  0.90787200    -0.78600
Zn605      Zn  0.13157443  0.39104986  0.92673206     1.55700
O606        O  0.10670747  0.30371992  0.85150332    -0.80000
Cd607      Cd  0.07879643  0.37941967  0.87156657     1.59700
Cd608      Cd  0.15742345  0.40542558  0.85028396     1.59600
O609        O  0.07513790  0.40777381  0.82964384    -0.80000
O610        O  0.12773255  0.37785194  0.88145533    -1.90500
Cd611      Cd  0.14115712  0.33049925  0.87930403     1.59900
O612        O  0.12490137  0.43047520  0.81605787    -0.80000
O613        O  0.14784761  0.31044151  0.92610726    -0.78600
C614        C  0.17951785  0.44776268  0.91059203     0.83900
C615        C  0.05937586  0.41258610  0.93700830     0.83600
O616        O  0.15660247  0.35775155  0.95420068    -0.77600
C617        C  0.07524224  0.30779699  0.84727429     0.84400
O618        O  0.15914347  0.43089237  0.92806842    -0.77700
C619        C  0.09313021  0.42685485  0.81149138     0.84500
C620        C  0.19931203  0.34158736  0.83060062     0.84800
O621        O  0.19058158  0.37188287  0.82408229    -0.80100
O622        O  0.08850710  0.10171131  0.81008397    -0.77600
C623        C  0.15951636  0.18096396  0.80662477     0.83400
O624        O  0.18441360  0.06597344  0.87819520    -0.78700
O625        O  0.18571066  0.18226949  0.90349553    -0.80200
O626        O  0.05924369  0.17402400  0.89886296    -0.80000
O627        O  0.04949301  0.10329547  0.84977526    -0.78600
Zn628      Zn  0.13137909  0.11622038  0.83103013     1.55700
O629        O  0.10633957  0.20359850  0.90597139    -0.80000
Cd630      Cd  0.07854570  0.12773592  0.88612775     1.59700
Cd631      Cd  0.15722538  0.10183990  0.90745118     1.59600
O632        O  0.07489295  0.09929441  0.92798575    -0.80000
O633        O  0.12749893  0.12942009  0.87629329    -1.90500
Cd634      Cd  0.14087782  0.17680618  0.87838675     1.59900
O635        O  0.12472580  0.07682532  0.94171200    -0.80000
O636        O  0.14764797  0.19683208  0.83158858    -0.78600
C637        C  0.17931943  0.05946438  0.84718304     0.83900
C638        C  0.05920309  0.09463026  0.82065880     0.83600
O639        O  0.15644380  0.14949088  0.80356948    -0.77600
C640        C  0.07491337  0.19940526  0.91031830     0.84400
O641        O  0.15897713  0.07639588  0.82972880    -0.77700
C642        C  0.09293085  0.08032056  0.94620390     0.84500
C643        C  0.19903212  0.16573867  0.92720545     0.84800
O644        O  0.19042732  0.13537985  0.93359657    -0.80100
O645        O  0.10685499  0.45564809  0.60319226    -0.77600
C646        C  0.16091644  0.43545151  0.69917106     0.83400
O647        O  0.19129836  0.38405237  0.57271692    -0.78700
O648        O  0.15908800  0.32976419  0.67967339    -0.80200
O649        O  0.05009867  0.35374638  0.65620020    -0.80000
O650        O  0.05937997  0.42679854  0.61064608    -0.78600
Zn651      Zn  0.14209976  0.42904190  0.62689285     1.55700
O652        O  0.08644140  0.35477813  0.69828795    -0.80000
Cd653      Cd  0.07889027  0.38029731  0.62087466     1.59700
Cd654      Cd  0.15695518  0.35308591  0.60015622     1.59600
O655        O  0.07475275  0.35298353  0.57820274    -0.80000
O656        O  0.12794262  0.38310170  0.62993902    -1.90500
Cd657      Cd  0.13019185  0.37036368  0.67689850     1.59900
O658        O  0.12382813  0.32771038  0.56672333    -0.80000
O659        O  0.15396929  0.40512521  0.70536375    -0.78600
C660        C  0.19840321  0.41518148  0.57671820     0.83900
C661        C  0.07528430  0.45209301  0.59948285     0.83600
O662        O  0.15387315  0.44923947  0.67138801    -0.77600
C663        C  0.05842585  0.34581596  0.68590172     0.84400
O664        O  0.18312153  0.43318843  0.59813050    -0.77700
C665        C  0.09235320  0.33239772  0.56125204     0.84500
C666        C  0.17890842  0.31226757  0.66208362     0.84800
O667        O  0.18329496  0.31771878  0.63076407    -0.80100
O668        O  0.40229425  0.20842894  0.65472603    -0.77600
C669        C  0.34571915  0.18655486  0.55804275     0.83400
O670        O  0.31504803  0.13001225  0.68190490    -0.78700
O671        O  0.34825340  0.08063768  0.57194231    -0.80200
O672        O  0.45281209  0.10044163  0.61019936    -0.80000
O673        O  0.44713351  0.17557686  0.64998071    -0.78600
Zn674      Zn  0.36784764  0.17873244  0.63078507     1.55700
O675        O  0.42542889  0.10959429  0.56225169    -0.80000
Cd676      Cd  0.42571224  0.12945051  0.64300181     1.59700
Cd677      Cd  0.35062495  0.10008510  0.65485061     1.59600
O678        O  0.42889294  0.10562513  0.68838672    -0.80000
O679        O  0.37908305  0.13240292  0.62731078    -1.90500
Cd680      Cd  0.37827197  0.12172460  0.57865356     1.59900
O681        O  0.38379797  0.07234089  0.68717080    -0.80000
O682        O  0.35571340  0.15788845  0.54839245    -0.78600
C683        C  0.31001304  0.16154188  0.67813393     0.83900
C684        C  0.43325355  0.20247596  0.66017744     0.83600
O685        O  0.35166407  0.19723876  0.58750300    -0.77600
C686        C  0.44966734  0.09694608  0.57873614     0.84400
O687        O  0.32828333  0.17930940  0.65918492    -0.77700
C688        C  0.41319806  0.07982042  0.69838389     0.84500
C689        C  0.32790967  0.06318092  0.58921772     0.84800
O690        O  0.32482290  0.06696883  0.62101306    -0.80100
O691        O  0.10684647  0.05152523  0.65443797    -0.77600
C692        C  0.16103841  0.07157573  0.55841803     0.83400
O693        O  0.19134715  0.12285736  0.68482578    -0.78700
O694        O  0.15909763  0.17746068  0.57801977    -0.80200
O695        O  0.05037696  0.15329278  0.60108415    -0.80000
O696        O  0.05938488  0.08034392  0.64683402    -0.78600
Zn697      Zn  0.14209261  0.07801727  0.63059722     1.55700
O698        O  0.08675243  0.15215626  0.55902239    -0.80000
Cd699      Cd  0.07899664  0.12679829  0.63653256     1.59700
Cd700      Cd  0.15701395  0.15393516  0.65747550     1.59600
O701        O  0.07475791  0.15423407  0.67912064    -0.80000
O702        O  0.12805042  0.12397859  0.62758952    -1.90500
Cd703      Cd  0.13044636  0.13672289  0.58064746     1.59900
O704        O  0.12387286  0.17926983  0.69092031    -0.80000
O705        O  0.15445100  0.10200460  0.55233360    -0.78600
C706        C  0.19845430  0.09173675  0.68072385     0.83900
C707        C  0.07527267  0.05509370  0.65811709     0.83600
O708        O  0.15363565  0.05772262  0.58607647    -0.77600
C709        C  0.05873883  0.16116722  0.57138005     0.84400
O710        O  0.18319334  0.07380120  0.65923629    -0.77700
C711        C  0.09235206  0.17470482  0.69621566     0.84500
C712        C  0.17881746  0.19498314  0.59568371     0.84800
O713        O  0.18324592  0.18943484  0.62697723    -0.80100
O714        O  0.42268380  0.35544427  0.94749225    -0.77600
C715        C  0.34740977  0.43517157  0.95128549     0.83400
O716        O  0.32481113  0.31525847  0.88535943    -0.78700
O717        O  0.32842903  0.43087753  0.85138359    -0.80200
O718        O  0.44704495  0.42180344  0.85199639    -0.80000
O719        O  0.45653804  0.35428709  0.90290835    -0.78600
Zn720      Zn  0.37783022  0.36940461  0.92952007     1.55700
O721        O  0.40485476  0.45827017  0.85337730    -0.80000
Cd722      Cd  0.42763929  0.37707667  0.86738455     1.59700
Cd723      Cd  0.35086998  0.34960197  0.85295707     1.59600
O724        O  0.43206165  0.34662626  0.82673226    -0.80000
O725        O  0.38057099  0.37992051  0.88220114    -1.90500
Cd726      Cd  0.37037072  0.42828872  0.87903134     1.59900
O727        O  0.38221881  0.32219358  0.81829062    -0.80000
O728        O  0.35632674  0.44847670  0.92377671    -0.78600
C729        C  0.32763995  0.31205237  0.91721351     0.83900
C730        C  0.45033159  0.34767383  0.93334628     0.83600
O731        O  0.35476100  0.40502292  0.95837581    -0.77600
C732        C  0.43443239  0.45010277  0.84446007     0.84400
O733        O  0.34744845  0.33033874  0.93424164    -0.77700
C734        C  0.41368430  0.32554442  0.81155016     0.84500
C735        C  0.31056338  0.41312827  0.83193000     0.84800
O736        O  0.31575032  0.38162472  0.82765106    -0.80100
O737        O  0.20974456  0.68456157  0.27658067    -0.77600
C738        C  0.28519514  0.68103596  0.19701540     0.83400
O739        O  0.30702921  0.74722976  0.31726838    -0.78700
O740        O  0.30396463  0.78115677  0.20153841    -0.80200
O741        O  0.18547939  0.78017279  0.21001537    -0.80000
O742        O  0.17583482  0.72914776  0.27758059    -0.78600
Zn743      Zn  0.25460237  0.70273540  0.26273638     1.55700
O744        O  0.22766980  0.77877443  0.17358939    -0.80000
Cd745      Cd  0.20467650  0.76480520  0.25484586     1.59700
Cd746      Cd  0.28123466  0.77954247  0.28260810     1.59600
O747        O  0.20002741  0.80546236  0.28538122    -0.80000
O748        O  0.25176707  0.75011738  0.25216594    -1.90500
Cd749      Cd  0.26209891  0.75332482  0.20383192     1.59900
O750        O  0.24984020  0.81441909  0.30965161    -0.80000
O751        O  0.27627029  0.70856714  0.18372868    -0.78600
C752        C  0.30433145  0.71532806  0.32045695     0.83900
C753        C  0.18207721  0.69871167  0.28430397     0.83600
O754        O  0.27787296  0.67393651  0.22715007    -0.77600
C755        C  0.19806082  0.78763985  0.18170075     0.84400
O756        O  0.28478319  0.69818671  0.30199097    -0.77700
C757        C  0.21832948  0.82092062  0.30633489     0.84500
C758        C  0.32182038  0.80057662  0.21935493     0.84800
O759        O  0.31656118  0.80481679  0.25081571    -0.80100
O760        O  0.04333037  0.68481534  0.22659788    -0.77600
C761        C  0.47293486  0.68132601  0.30618098     0.83400
O762        O  0.44763536  0.75314346  0.19121840    -0.78700
O763        O  0.44621748  0.77762326  0.30741802    -0.80200
O764        O  0.07264904  0.77394802  0.29931841    -0.80000
O765        O  0.08258434  0.72429303  0.22874951    -0.78600
Zn766      Zn  0.50066386  0.70584220  0.24139514     1.55700
O767        O  0.02549711  0.78095535  0.32882156    -0.80000
Cd768      Cd  0.05355371  0.76091947  0.25298513     1.59700
Cd769      Cd  0.47490687  0.78233890  0.22711143     1.59600
O770        O  0.05722074  0.80269182  0.22430110    -0.80000
O771        O  0.50470709  0.75113565  0.25461950    -1.90500
Cd772      Cd  0.49141922  0.75306952  0.30202121     1.59900
O773        O  0.00736931  0.81665189  0.20203338    -0.80000
O774        O  0.48515700  0.70614917  0.32201626    -0.78600
C775        C  0.45263675  0.72207599  0.18476549     0.83900
C776        C  0.07275768  0.69526317  0.21981350     0.83600
O777        O  0.47568514  0.67838714  0.27470077    -0.77600
C778        C  0.05693576  0.78535082  0.32469361     0.84400
O779        O  0.47291029  0.70459055  0.20173748    -0.77700
C780        C  0.03920598  0.82100168  0.20538202     0.84500
C781        C  0.43290302  0.80146200  0.29103952     0.84800
O782        O  0.44165617  0.80816962  0.26081589    -0.80100
O783        O  0.20966615  0.82254095  0.48133264    -0.77600
C784        C  0.28528712  0.82590635  0.06100566     0.83400
O785        O  0.30693770  0.75987880  0.44071017    -0.78700
O786        O  0.30373552  0.72566989  0.05626765    -0.80200
O787        O  0.18531247  0.72718285  0.04787499    -0.80000
O788        O  0.17588652  0.77786276  0.47995566    -0.78600
Zn789      Zn  0.25450469  0.80436251  0.49529260     1.55700
O790        O  0.22760472  0.72832566  0.08420659    -0.80000
Cd791      Cd  0.20458203  0.74222378  0.50292461     1.59700
Cd792      Cd  0.28107565  0.72754701  0.47522363     1.59600
O793        O  0.19991976  0.70141605  0.47253113    -0.80000
O794        O  0.25168091  0.75696169  0.00572760    -1.90500
Cd795      Cd  0.26204831  0.75368736  0.05402459     1.59900
O796        O  0.24965588  0.69288791  0.44795972    -0.80000
O797        O  0.27649810  0.79829421  0.07420540    -0.78600
C798        C  0.30431762  0.79178963  0.43761986     0.83900
C799        C  0.18209065  0.80834015  0.47337013     0.83600
O800        O  0.27776002  0.83314141  0.03095392    -0.77600
C801        C  0.19795569  0.71959024  0.07613271     0.84400
O802        O  0.28480944  0.80893682  0.45612945    -0.77700
C803        C  0.21819952  0.68619279  0.45138294     0.84500
C804        C  0.32154477  0.70622891  0.03843916     0.84800
O805        O  0.31631674  0.70207059  0.00696487    -0.80100
O806        O  0.22970104  0.52951944  0.33366473    -0.77600
C807        C  0.28634690  0.93280455  0.31230121     0.83400
O808        O  0.31732120  0.55656301  0.25542476    -0.78700
O809        O  0.28428916  0.94644247  0.20649786    -0.80200
O810        O  0.17937849  0.98457096  0.22579375    -0.80000
O811        O  0.18496013  0.52472638  0.30069534    -0.78600
Zn812      Zn  0.26433990  0.50564708  0.30419216     1.55700
O813        O  0.20687795  0.93664181  0.23488518    -0.80000
Cd814      Cd  0.20649546  0.51759451  0.25470502     1.59700
Cd815      Cd  0.28168960  0.52947211  0.22558481     1.59600
O816        O  0.20336072  0.56295113  0.23080744    -0.80000
O817        O  0.25314552  0.50197841  0.25788363    -1.90500
Cd818      Cd  0.25394001  0.95320921  0.24734461     1.59900
O819        O  0.24859459  0.56175777  0.19773622    -0.80000
O820        O  0.27629585  0.92307815  0.28371040    -0.78600
C821        C  0.32230033  0.55292314  0.28694881     0.83900
C822        C  0.19874871  0.53491491  0.32762231     0.83600
O823        O  0.28049419  0.96235545  0.32288675    -0.77600
C824        C  0.18260183  0.95309405  0.22224848     0.84400
O825        O  0.30392568  0.53411491  0.30476766    -0.77700
C826        C  0.21915932  0.57295885  0.20509432     0.84500
C827        C  0.30452702  0.96372651  0.18891623     0.84800
O828        O  0.30749579  0.49559923  0.19252884    -0.80100
O829        O  0.04345282  0.82224516  0.03067818    -0.77600
C830        C  0.47287075  0.82564388  0.45139449     0.83400
O831        O  0.44792490  0.75378233  0.06639334    -0.78700
O832        O  0.44592574  0.72941341  0.45041921    -0.80200
O833        O  0.07278005  0.73342193  0.45806286    -0.80000
O834        O  0.08260712  0.78265547  0.02886657    -0.78600
Zn835      Zn  0.50071202  0.80120917  0.01610932     1.55700
O836        O  0.02554422  0.72598427  0.42880273    -0.80000
Cd837      Cd  0.05366332  0.74609159  0.00449739     1.59700
Cd838      Cd  0.47514896  0.72459283  0.03045704     1.59600
O839        O  0.05756517  0.70414575  0.03291974    -0.80000
O840        O  0.00471285  0.75586090  0.00296274    -1.90500
Cd841      Cd  0.49115864  0.75390913  0.45567917     1.59900
O842        O  0.00778169  0.69025837  0.05538584    -0.80000
O843        O  0.48501024  0.80076831  0.43558547    -0.78600
C844        C  0.45288148  0.78485724  0.07287557     0.83900
C845        C  0.07282052  0.81174473  0.03763317     0.83600
O846        O  0.47565798  0.82863319  0.48286756    -0.77600
C847        C  0.05702172  0.72182907  0.43280662     0.84400
O848        O  0.47307275  0.80242317  0.05587795    -0.77700
C849        C  0.03959352  0.68585486  0.05189828     0.84500
C850        C  0.43300809  0.70530558  0.46670546     0.84800
O851        O  0.44202434  0.69850422  0.99682578    -0.80100
O852        O  0.02592444  0.52888052  0.17680468    -0.77600
C853        C  0.47175374  0.93297498  0.19664999     0.85000
O854        O  0.44069008  0.55924497  0.24835710    -0.78700
O855        O  0.47308547  0.95219339  0.30227836    -0.80200
O856        O  0.08227508  0.97608484  0.27881480    -0.80000
O857        O  0.07324205  0.52176682  0.20595583    -0.78600
Zn858      Zn  0.49047906  0.50534651  0.20335894     1.55700
O859        O  0.04606134  0.93385215  0.27762547    -0.80000
Cd860      Cd  0.05346090  0.51128267  0.25223333     1.59700
Cd861      Cd  0.47523594  0.53190420  0.27925973     1.59600
O862        O  0.05742283  0.55387179  0.27960142    -0.80000
O863        O  0.00441820  0.50215838  0.24923021    -1.90500
Cd864      Cd  0.50224326  0.95509346  0.26187013     1.59900
O865        O  0.00825031  0.56550731  0.30457964    -0.80000
O866        O  0.47891596  0.92657703  0.22685775    -0.78600
C867        C  0.43398969  0.55550275  0.21713369     0.83900
C868        C  0.05746120  0.53271716  0.18051545     0.83600
O869        O  0.47847303  0.96095632  0.18306885    -0.77600
C870        C  0.07400602  0.94633558  0.28668400     0.84400
O871        O  0.44966613  0.53437274  0.19912879    -0.77700
C872        C  0.03974812  0.57092795  0.30002221     0.84500
C873        C  0.45340587  0.96981945  0.31990713     0.84800
O874        O  0.44910639  0.00120266  0.31460936    -0.80100
O875        O  0.22981374  0.97736779  0.42422558    -0.77600
C876        C  0.28658283  0.57401588  0.44560627     0.83400
O877        O  0.31737798  0.95028409  0.00231686    -0.78700
O878        O  0.28389688  0.56030936  0.05167197    -0.80200
O879        O  0.17969641  0.52216556  0.03217307    -0.80000
O880        O  0.18496212  0.98257492  0.45697399    -0.78600
Zn881      Zn  0.26438382  0.00126893  0.45365910     1.55700
O882        O  0.20681473  0.57015813  0.02240119    -0.80000
Cd883      Cd  0.20655015  0.98932530  0.00302181     1.59700
Cd884      Cd  0.28170516  0.97732502  0.03217749     1.59600
O885        O  0.20339721  0.94384098  0.02668075    -0.80000
O886        O  0.25326250  0.50489171  0.99991155    -1.90500
Cd887      Cd  0.25401207  0.55357764  0.01050444     1.59900
O888        O  0.24851276  0.94506654  0.05991477    -0.80000
O889        O  0.27668313  0.58367341  0.47427859    -0.78600
C890        C  0.32236010  0.95405352  0.47080871     0.83900
C891        C  0.19880683  0.97218923  0.43014991     0.83600
O892        O  0.28056839  0.54454223  0.43492522    -0.77600
C893        C  0.18275063  0.55369289  0.03540900     0.84400
O894        O  0.30400012  0.97290371  0.45302904    -0.77700
C895        C  0.21910318  0.93386312  0.05246361     0.84500
C896        C  0.30427959  0.54303076  0.06909099     0.84800
O897        O  0.30746543  0.51122568  0.06523556    -0.80100
O898        O  0.02595723  0.97830804  0.08081847    -0.77600
C899        C  0.47146910  0.57401435  0.06092204     0.83400
O900        O  0.44087988  0.94752070  0.00933465    -0.78700
O901        O  0.47315145  0.55478541  0.45534088    -0.80200
O902        O  0.08207078  0.53113717  0.47876374    -0.80000
O903        O  0.07326873  0.98537306  0.05164544    -0.78600
Zn904      Zn  0.49042325  0.00166528  0.05430237     1.55700
O905        O  0.04577273  0.57330296  0.47991825    -0.80000
Cd906      Cd  0.05343783  0.99582753  0.00538311     1.59700
Cd907      Cd  0.47529450  0.97501687  0.47845608     1.59600
O908        O  0.05747325  0.95323582  0.47799614    -0.80000
O909        O  0.00433579  0.50487210  0.00838874    -1.90500
Cd910      Cd  0.50216578  0.55197612  0.49586060     1.59900
O911        O  0.00832409  0.94162425  0.45297322    -0.80000
O912        O  0.47863251  0.58043995  0.03072118    -0.78600
C913        C  0.43419998  0.95120209  0.04057087     0.83900
C914        C  0.05748480  0.97444409  0.07709387     0.83600
O915        O  0.47826984  0.54605734  0.07451228    -0.77600
C916        C  0.07373694  0.56085881  0.47086470     0.84400
O917        O  0.44981248  0.97237813  0.05857221    -0.77700
C918        C  0.03982159  0.93621369  0.45753439     0.84500
C919        C  0.45347732  0.53711510  0.43775174     0.84800
O920        O  0.44914203  0.50575509  0.44314714    -0.80100
O921        O  0.40264481  0.79844066  0.10290690    -0.77600
C922        C  0.34615020  0.82017529  0.19975778     0.83400
O923        O  0.31531886  0.87691128  0.07611549    -0.78700
O924        O  0.34864685  0.92612151  0.18602606    -0.80200
O925        O  0.45314277  0.90648109  0.14739628    -0.80000
O926        O  0.44753887  0.83117854  0.10786339    -0.78600
Zn927      Zn  0.36823511  0.82806489  0.12702590     1.55700
O928        O  0.42594610  0.89714602  0.19542238    -0.80000
Cd929      Cd  0.42605746  0.87732481  0.11469446     1.59700
Cd930      Cd  0.35098613  0.90678637  0.10308509     1.59600
O931        O  0.42909511  0.90099614  0.06918607    -0.80000
O932        O  0.37945708  0.87439889  0.13051933    -1.90500
Cd933      Cd  0.37871395  0.88505372  0.17917214     1.59900
O934        O  0.38415229  0.93446900  0.07071561    -0.80000
O935        O  0.35615644  0.84884550  0.20939267    -0.78600
C936        C  0.31026152  0.84538457  0.07987577     0.83900
C937        C  0.43362435  0.80435473  0.09751553     0.83600
O938        O  0.35212592  0.80945466  0.17031464    -0.77600
C939        C  0.45008462  0.90991605  0.17887852     0.84400
O940        O  0.32857735  0.82757411  0.09874516    -0.77700
C941        C  0.41346410  0.92689946  0.05933412     0.84500
C942        C  0.32830710  0.94362917  0.16879116     0.84800
O943        O  0.32525230  0.93992204  0.13698243    -0.80100
O944        O  0.42263952  0.65155467  0.31003782    -0.77600
C945        C  0.34732381  0.57178471  0.30637703     0.83400
O946        O  0.32489245  0.69164161  0.37261577    -0.78700
O947        O  0.32845341  0.57593054  0.40626298    -0.80200
O948        O  0.44714370  0.58490141  0.40541768    -0.80000
O949        O  0.45668202  0.65240113  0.35447980    -0.78600
Zn950      Zn  0.37779109  0.63759680  0.32815382     1.55700
O951        O  0.40484047  0.54855321  0.40425844    -0.80000
Cd952      Cd  0.42779743  0.62966476  0.39006702     1.59700
Cd953      Cd  0.35105648  0.65715300  0.40483058     1.59600
O954        O  0.43235374  0.66014322  0.43072289    -0.80000
O955        O  0.38066332  0.62690157  0.37542222    -1.90500
Cd956      Cd  0.37039447  0.57853184  0.37856641     1.59900
O957        O  0.38248094  0.68441178  0.43947928    -0.80000
O958        O  0.35643632  0.55838133  0.33377465    -0.78600
C959        C  0.32771225  0.69501859  0.34077418     0.83900
C960        C  0.45038018  0.65917087  0.32409671     0.83600
O961        O  0.35453135  0.60199758  0.29937742    -0.77600
C962        C  0.43445285  0.55667376  0.41309328     0.84400
O963        O  0.34749303  0.67678498  0.32365169    -0.77700
C964        C  0.41398030  0.68112493  0.44606443     0.84500
C965        C  0.31076204  0.59366837  0.42589327     0.84800
O966        O  0.31606851  0.62513404  0.43025611    -0.80100
O967        O  0.08859338  0.90541547  0.44762139    -0.77600
C968        C  0.15966136  0.82621824  0.45104940     0.83400
O969        O  0.18457792  0.94116050  0.37961375    -0.78700
O970        O  0.18579652  0.82495954  0.35417384    -0.80200
O971        O  0.05931846  0.83318150  0.35877118    -0.80000
O972        O  0.04967938  0.90398746  0.40782481    -0.78600
Zn973      Zn  0.13149766  0.89097986  0.42669499     1.55700
O974        O  0.10641542  0.80363915  0.35159864    -0.80000
Cd975      Cd  0.07871506  0.87947020  0.37150319     1.59700
Cd976      Cd  0.15741204  0.90537767  0.35027001     1.59600
O977        O  0.07513892  0.90787778  0.32962051    -0.80000
O978        O  0.12765289  0.87780099  0.38140275    -1.90500
Cd979      Cd  0.14097498  0.83041479  0.37925387     1.59900
O980        O  0.12494774  0.93045530  0.31599609    -0.80000
O981        O  0.14785057  0.81037511  0.42603909    -0.78600
C982        C  0.17943336  0.94771540  0.41060865     0.83900
C983        C  0.05932586  0.91256385  0.43698687     0.83600
O984        O  0.15655251  0.85768530  0.45414991    -0.77600
C985        C  0.07498010  0.80781650  0.34726162     0.84400
O986        O  0.15904361  0.93084276  0.42806512    -0.77700
C987        C  0.09316551  0.92690396  0.31144661     0.84500
C988        C  0.19919626  0.84148482  0.33050933     0.84800
O989        O  0.19064989  0.87186035  0.32411851    -0.80100
O990        O  0.08857762  0.60162088  0.31000994    -0.77600
C991        C  0.15957830  0.68086024  0.30656203     0.83400
O992        O  0.18445398  0.56592194  0.37819035    -0.78700
O993        O  0.18587377  0.68214578  0.40335952    -0.80200
O994        O  0.05935187  0.67403830  0.39874868    -0.80000
O995        O  0.04951525  0.60331902  0.34964753    -0.78600
Zn996      Zn  0.13144046  0.61613168  0.33097182     1.55700
O997        O  0.10649129  0.70352038  0.40596413    -0.80000
Cd998      Cd  0.07858495  0.62772080  0.38602135     1.59700
Cd999      Cd  0.15723233  0.60178345  0.40742062     1.59600
O1000       O  0.07487288  0.59927665  0.42787748    -0.80000
O1001       O  0.12754679  0.62935111  0.37622551    -1.90500
Cd1002     Cd  0.14098489  0.67671692  0.37832782     1.59900
O1003       O  0.12468519  0.57678289  0.44164172    -0.80000
O1004       O  0.14769985  0.69673122  0.33151974    -0.78600
C1005       C  0.17937707  0.55939981  0.34717775     0.83900
C1006       C  0.05924639  0.59460372  0.32055262     0.83600
O1007       O  0.15651659  0.64938626  0.30351184    -0.77600
C1008       C  0.07505207  0.69937328  0.41026669     0.84400
O1009       O  0.15903731  0.57631444  0.32970545    -0.77700
C1010       C  0.09288838  0.58029299  0.44610885     0.84500
C1011       C  0.19909004  0.66565696  0.42715590     0.84800
O1012       O  0.19039491  0.63533589  0.43360598    -0.80100
O1013       O  0.10687629  0.95557558  0.10323048    -0.77600
C1014       C  0.16092182  0.93530821  0.19920415     0.83400
O1015       O  0.19127010  0.88398112  0.07270486    -0.78700
O1016       O  0.15909424  0.82963993  0.17962784    -0.80200
O1017       O  0.05007420  0.85368893  0.15619734    -0.80000
O1018       O  0.05938888  0.92674043  0.11065199    -0.78600
Zn1019     Zn  0.14209927  0.92893628  0.12692660     1.55700
O1020       O  0.08645542  0.85462153  0.19825585    -0.80000
Cd1021     Cd  0.07887980  0.88022914  0.12087691     1.59700
Cd1022     Cd  0.15693931  0.85300200  0.10013713     1.59600
O1023       O  0.07473365  0.85292848  0.07820192    -0.80000
O1024       O  0.12793449  0.88300263  0.12994152    -1.90500
Cd1025     Cd  0.13020173  0.87023758  0.17689050     1.59900
O1026       O  0.12380472  0.82765267  0.06670592    -0.80000
O1027       O  0.15398940  0.90497603  0.20538606    -0.78600
C1028       C  0.19838890  0.91510224  0.07674056     0.83900
C1029       C  0.07530566  0.95203613  0.09950904     0.83600
O1030       O  0.15386164  0.94910492  0.17143060    -0.77600
C1031       C  0.05841700  0.84571301  0.18588244     0.84400
O1032       O  0.18312684  0.93308966  0.09818215    -0.77700
C1033       C  0.09233017  0.83234663  0.06124350     0.84500
C1034       C  0.17890617  0.81214821  0.16202550     0.84800
O1035       O  0.18328604  0.81761229  0.13070810    -0.80100
O1036       O  0.40240372  0.70844722  0.15473105    -0.77600
C1037       C  0.34579924  0.68656090  0.05804084     0.83400
O1038       O  0.31513411  0.62998803  0.18185613    -0.78700
O1039       O  0.34836412  0.58061930  0.07191836    -0.80200
O1040       O  0.45290873  0.60049747  0.11017083    -0.80000
O1041       O  0.44722959  0.67556697  0.15006579    -0.78600
Zn1042     Zn  0.36795786  0.67874389  0.13077812     1.55700
O1043       O  0.42550914  0.60964369  0.06222952    -0.80000
Cd1044     Cd  0.42580464  0.62945813  0.14299803     1.59700
Cd1045     Cd  0.35071878  0.60007455  0.15481365     1.59600
O1046       O  0.42898463  0.60556984  0.18834309    -0.80000
O1047       O  0.37918033  0.63240944  0.12729599    -1.90500
Cd1048     Cd  0.37835172  0.62172994  0.07864052     1.59900
O1049       O  0.38385694  0.57232811  0.18715001    -0.80000
O1050       O  0.35577175  0.65788584  0.04839536    -0.78600
C1051       C  0.31010660  0.66152022  0.17810346     0.83900
C1052       C  0.43335367  0.70248151  0.16022558     0.83600
O1053       O  0.35177011  0.69725579  0.08749281    -0.77600
C1054       C  0.44975556  0.59700528  0.07870896     0.84400
O1055       O  0.32838854  0.67930093  0.15917638    -0.77700
C1056       C  0.41326164  0.57978959  0.19835745     0.84500
C1057       C  0.32802652  0.56315282  0.08919111     0.84800
O1058       O  0.32493286  0.56694365  0.12098422    -0.80100
O1059       O  0.10691929  0.55150253  0.15443157    -0.77600
C1060       C  0.16113807  0.57157503  0.05844753     0.83400
O1061       O  0.19138223  0.62289471  0.18488766    -0.78700
O1062       O  0.15919160  0.67744316  0.07805541    -0.80200
O1063       O  0.05043567  0.65325995  0.10109478    -0.80000
O1064       O  0.05945556  0.58029846  0.14675863    -0.78600
Zn1065     Zn  0.14218680  0.57801691  0.13063588     1.55700
O1066       O  0.08682853  0.65217112  0.05904849    -0.80000
Cd1067     Cd  0.07906121  0.62676718  0.13653301     1.59700
Cd1068     Cd  0.15704193  0.65395441  0.15752205     1.59600
O1069       O  0.07477086  0.65417291  0.17913586    -0.80000
O1070       O  0.12812150  0.62397439  0.12761479    -1.90500
Cd1071     Cd  0.13052155  0.63671738  0.08066996     1.59900
O1072       O  0.12385210  0.67926766  0.19094847    -0.80000
O1073       O  0.15451345  0.60199320  0.05234875    -0.78600
C1074       C  0.19851833  0.59177917  0.18079190     0.83900
C1075       C  0.07533611  0.55505254  0.15805807     0.83600
O1076       O  0.15377240  0.55773150  0.08612054    -0.77600
C1077       C  0.05880091  0.66115228  0.07139771     0.84400
O1078       O  0.18327738  0.57382661  0.15930353    -0.77700
C1079       C  0.09233276  0.67467043  0.19623200     0.84500
C1080       C  0.17888480  0.69498742  0.09572768     0.84800
O1081       O  0.18328023  0.68946478  0.12703101    -0.80100
O1082       O  0.42266101  0.85550648  0.44759609    -0.77600
C1083       C  0.34734884  0.93519981  0.45133074     0.83400
O1084       O  0.32486597  0.81524885  0.38538884    -0.78700
O1085       O  0.32839200  0.93088701  0.35143926    -0.80200
O1086       O  0.44699225  0.92190169  0.35204737    -0.80000
O1087       O  0.45657201  0.85445236  0.40305412    -0.78600
Zn1088     Zn  0.37780960  0.86944178  0.42958944     1.55700
O1089       O  0.40477816  0.95834018  0.35342498    -0.80000
Cd1090     Cd  0.42765346  0.87717050  0.36750233     1.59700
Cd1091     Cd  0.35091337  0.84962286  0.35299638     1.59600
O1092       O  0.43213631  0.84666170  0.32690858    -0.80000
O1093       O  0.38056982  0.87996304  0.38227110    -1.90500
Cd1094     Cd  0.37033187  0.92832641  0.37909053     1.59900
O1095       O  0.38230705  0.82225302  0.31832404    -0.80000
O1096       O  0.35627697  0.94851162  0.42382946    -0.78600
C1097       C  0.32767061  0.81204752  0.41724686     0.83900
C1098       C  0.45033879  0.84779444  0.43347618     0.83600
O1099       O  0.35470386  0.90505228  0.45842303    -0.77600
C1100       C  0.43435584  0.95018726  0.34449802     0.84400
O1101       O  0.34744937  0.83035363  0.43428904    -0.77700
C1102       C  0.41379136  0.82559767  0.31166371     0.84500
C1103       C  0.31056028  0.91312928  0.33196524     0.84800
O1104       O  0.31578111  0.88163034  0.32767867    -0.80100
O1105       O  0.20969237  0.68460089  0.77664121    -0.77600
C1106       C  0.28515230  0.68104451  0.69705668     0.83400
O1107       O  0.30700705  0.74721056  0.81731278    -0.78700
O1108       O  0.30394101  0.78116706  0.70160584    -0.80200
O1109       O  0.18545461  0.78017801  0.71005355    -0.80000
O1110       O  0.17580786  0.72920686  0.77767048    -0.78600
Zn1111     Zn  0.25455555  0.70274403  0.76277660     1.55700
O1112       O  0.22766099  0.77879411  0.67364485    -0.80000
Cd1113     Cd  0.20465420  0.76484684  0.75489969     1.59700
Cd1114     Cd  0.28122015  0.77953496  0.78266386     1.59600
O1115       O  0.20002890  0.80554331  0.78539587    -0.80000
O1116       O  0.25173861  0.75013025  0.75221901    -1.90500
Cd1117     Cd  0.26207918  0.75334191  0.70389131     1.59900
O1118       O  0.24983626  0.81440026  0.80971654    -0.80000
O1119       O  0.27626085  0.70859317  0.68378470    -0.78600
C1120       C  0.30430787  0.71530818  0.82048717     0.83900
C1121       C  0.18203758  0.69876490  0.78438438     0.83600
O1122       O  0.27780020  0.67392898  0.72718045    -0.77600
C1123       C  0.19804534  0.78764820  0.68174307     0.84400
O1124       O  0.28475468  0.69817612  0.80201723    -0.77700
C1125       C  0.21834051  0.82095657  0.80637513     0.84500
C1126       C  0.32180296  0.80058196  0.71941928     0.84800
O1127       O  0.31655048  0.80481960  0.75088131    -0.80100
O1128       O  0.04335836  0.68480590  0.72665898    -0.77600
C1129       C  0.47289200  0.68133758  0.80616311     0.83400
O1130       O  0.44762488  0.75316432  0.69118406    -0.78700
O1131       O  0.44601112  0.77752704  0.80728685    -0.80200
O1132       O  0.07272852  0.77396947  0.79929961    -0.80000
O1133       O  0.08259449  0.72430732  0.72873077    -0.78600
Zn1134     Zn  0.50062748  0.70584728  0.74137760     1.55700
O1135       O  0.02560371  0.78092296  0.82885827    -0.80000
Cd1136     Cd  0.05359053  0.76093882  0.75298374     1.59700
Cd1137     Cd  0.47490746  0.78235720  0.72707321     1.59600
O1138       O  0.05724208  0.80271160  0.72429552    -0.80000
O1139       O  0.50465873  0.75113820  0.75459893    -1.90500
Cd1140     Cd  0.49129080  0.75309107  0.80197525     1.59900
O1141       O  0.00737721  0.81666945  0.70205814    -0.80000
O1142       O  0.48509395  0.70617460  0.82199174    -0.78600
C1143       C  0.45260516  0.72208960  0.68474670     0.83900
C1144       C  0.07277174  0.69526532  0.71983090     0.83600
O1145       O  0.47565560  0.67838628  0.77468508    -0.77600
C1146       C  0.05703562  0.78533807  0.82470237     0.84400
O1147       O  0.47286701  0.70459797  0.70172637    -0.77700
C1148       C  0.03921537  0.82102169  0.70538808     0.84500
C1149       C  0.43281197  0.80145170  0.79094385     0.84800
O1150       O  0.44167670  0.80822467  0.76076715    -0.80100
O1151       O  0.20967631  0.82253987  0.98136053    -0.77600
C1152       C  0.28523866  0.82587878  0.56101476     0.83400
O1153       O  0.30693042  0.75987071  0.94070935    -0.78700
O1154       O  0.30367834  0.72564620  0.55626506    -0.80200
O1155       O  0.18527746  0.72711245  0.54781258    -0.80000
O1156       O  0.17591077  0.77785237  0.97997700    -0.78600
Zn1157     Zn  0.25452425  0.80437106  0.99530368     1.55700
O1158       O  0.22753783  0.72830637  0.58417846    -0.80000
Cd1159     Cd  0.20461297  0.74223757  0.00296997     1.59700
Cd1160     Cd  0.28108386  0.72754963  0.97523868     1.59600
O1161       O  0.19993658  0.70140184  0.97261650    -0.80000
O1162       O  0.25165060  0.75694909  0.50570494    -1.90500
Cd1163     Cd  0.26199312  0.75366571  0.55400835     1.59900
O1164       O  0.24965086  0.69288973  0.94799668    -0.80000
O1165       O  0.27643822  0.79826652  0.57420634    -0.78600
C1166       C  0.30430942  0.79178041  0.93761211     0.83900
C1167       C  0.18210539  0.80833177  0.97339517     0.83600
O1168       O  0.27772682  0.83311960  0.53096068    -0.77600
C1169       C  0.19790206  0.71954479  0.57608584     0.84400
O1170       O  0.28480969  0.80893402  0.95612483    -0.77700
C1171       C  0.21820056  0.68618471  0.95145052     0.84500
C1172       C  0.32150728  0.70621719  0.53844339     0.84800
O1173       O  0.31630125  0.70206713  0.50696380    -0.80100
O1174       O  0.22966622  0.52951968  0.83369596    -0.77600
C1175       C  0.28632523  0.93281113  0.81231257     0.83400
O1176       O  0.31729389  0.55654166  0.75543661    -0.78700
O1177       O  0.28426221  0.94643406  0.70651352    -0.80200
O1178       O  0.17935013  0.98456612  0.72579672    -0.80000
O1179       O  0.18492627  0.52476688  0.80071790    -0.78600
Zn1180     Zn  0.26430507  0.50564553  0.80421581     1.55700
O1181       O  0.20685578  0.93663984  0.73488600    -0.80000
Cd1182     Cd  0.20645676  0.51759954  0.75472798     1.59700
Cd1183     Cd  0.28165510  0.52945723  0.72560229     1.59600
O1184       O  0.20333047  0.56294596  0.73081481    -0.80000
O1185       O  0.25310529  0.50197644  0.75790641    -1.90500
Cd1186     Cd  0.25391082  0.95320868  0.74735610     1.59900
O1187       O  0.24856613  0.56174339  0.69774629    -0.80000
O1188       O  0.27626170  0.92308051  0.78372643    -0.78600
C1189       C  0.32227559  0.55290760  0.78696073     0.83900
C1190       C  0.19871741  0.53493688  0.82765128     0.83600
O1191       O  0.28047934  0.96236334  0.82289468    -0.77600
C1192       C  0.18258201  0.95309108  0.72224422     0.84400
O1193       O  0.30389765  0.53410941  0.80478743    -0.77700
C1194       C  0.21913028  0.57294615  0.70509975     0.84500
C1195       C  0.30449438  0.96371579  0.68892374     0.84800
O1196       O  0.30745530  0.49557454  0.69255130    -0.80100
O1197       O  0.04351979  0.82222673  0.53062171    -0.77600
C1198       C  0.47288246  0.82558465  0.95132467     0.83400
O1199       O  0.44789038  0.75375782  0.56642470    -0.78700
O1200       O  0.44599777  0.72932814  0.95036996    -0.80200
O1201       O  0.07272036  0.73347802  0.95807648    -0.80000
O1202       O  0.08264546  0.78260392  0.52887156    -0.78600
Zn1203     Zn  0.50067472  0.80122344  0.51617204     1.55700
O1204       O  0.02547247  0.72597269  0.92885203    -0.80000
Cd1205     Cd  0.05370278  0.74604621  0.50448082     1.59700
Cd1206     Cd  0.47513779  0.72459433  0.53048106     1.59600
O1207       O  0.05756043  0.70409280  0.53290656    -0.80000
O1208       O  0.00475579  0.75584869  0.50292455    -1.90500
Cd1209     Cd  0.49120358  0.75386402  0.95564074     1.59900
O1210       O  0.00776199  0.69025486  0.55537110    -0.80000
O1211       O  0.48502241  0.80070500  0.93552407    -0.78600
C1212       C  0.45283459  0.78483224  0.57291925     0.83900
C1213       C  0.07287323  0.81170758  0.53761063     0.83600
O1214       O  0.47568219  0.82859227  0.98279493    -0.77600
C1215       C  0.05695665  0.72184875  0.93284125     0.84400
O1216       O  0.47302398  0.80241044  0.55593232    -0.77700
C1217       C  0.03956989  0.68582200  0.55188823     0.84500
C1218       C  0.43303857  0.70526144  0.96668394     0.84800
O1219       O  0.44203032  0.69850979  0.49682834    -0.80100
O1220       O  0.02590363  0.52886991  0.67688865    -0.77600
C1221       C  0.47171722  0.93296962  0.69660808     0.85000
O1222       O  0.44069594  0.55924727  0.74836764    -0.78700
O1223       O  0.47312701  0.95213640  0.80226319    -0.80200
O1224       O  0.08226519  0.97604468  0.77884789    -0.80000
O1225       O  0.07322336  0.52179654  0.70604482    -0.78600
Zn1226     Zn  0.49047358  0.50537375  0.70332897     1.55700
O1227       O  0.04602923  0.93382978  0.77768952    -0.80000
Cd1228     Cd  0.05344639  0.51129366  0.75232174     1.59700
Cd1229     Cd  0.47525449  0.53188708  0.77924703     1.59600
O1230       O  0.05740818  0.55386822  0.77970994    -0.80000
O1231       O  0.00440578  0.50217249  0.74932119    -1.90500
Cd1232     Cd  0.50225099  0.95505640  0.76182276     1.59900
O1233       O  0.00822935  0.56551899  0.80466953    -0.80000
O1234       O  0.47888672  0.92656641  0.72681330    -0.78600
C1235       C  0.43397798  0.55551960  0.71714552     0.83900
C1236       C  0.05743760  0.53272279  0.68059667     0.83600
O1237       O  0.47844353  0.96094979  0.68302650    -0.77600
C1238       C  0.07398339  0.94630199  0.78673017     0.84400
O1239       O  0.44964944  0.53439989  0.69912318    -0.77700
C1240       C  0.03973008  0.57093021  0.80012295     0.84500
C1241       C  0.45344262  0.96976056  0.81989126     0.84800
O1242       O  0.44913301  0.00114194  0.81459005    -0.80100
O1243       O  0.22985676  0.97733463  0.92424134    -0.77600
C1244       C  0.28659892  0.57398164  0.94560744     0.83400
O1245       O  0.31734442  0.95032206  0.50231701    -0.78700
O1246       O  0.28384821  0.56035115  0.55167464    -0.80200
O1247       O  0.17968247  0.52214917  0.53218848    -0.80000
O1248       O  0.18499622  0.98258884  0.95696989    -0.78600
Zn1249     Zn  0.26442641  0.00124032  0.95366752     1.55700
O1250       O  0.20675926  0.57016052  0.52238993    -0.80000
Cd1251     Cd  0.20652242  0.98932366  0.50302339     1.59700
Cd1252     Cd  0.28167647  0.97736243  0.53217010     1.59600
O1253       O  0.20340332  0.94383125  0.52667606    -0.80000
O1254       O  0.25323712  0.50492420  0.49990203    -1.90500
Cd1255     Cd  0.25397083  0.55361131  0.51049557     1.59900
O1256       O  0.24850636  0.94510306  0.55992280    -0.80000
O1257       O  0.27672154  0.58363319  0.97428823    -0.78600
C1258       C  0.32240064  0.95402267  0.97080937     0.83900
C1259       C  0.19884472  0.97217871  0.93015780     0.83600
O1260       O  0.28057337  0.54451155  0.93492270    -0.77600
C1261       C  0.18271668  0.55367881  0.53541832     0.84400
O1262       O  0.30404569  0.97287985  0.95303249    -0.77700
C1263       C  0.21910854  0.93387447  0.55246756     0.84500
C1264       C  0.30423510  0.54307386  0.56909192     0.84800
O1265       O  0.30743119  0.51127182  0.56522870    -0.80100
O1266       O  0.02597550  0.97828086  0.58078024    -0.77600
C1267       C  0.47145718  0.57398693  0.56099145     0.83400
O1268       O  0.44088078  0.94746570  0.50934284    -0.78700
O1269       O  0.47317466  0.55478315  0.95526929    -0.80200
O1270       O  0.08205052  0.53114722  0.97881265    -0.80000
O1271       O  0.07328955  0.98537145  0.55161976    -0.78600
Zn1272     Zn  0.49040241  0.00161017  0.55432371     1.55700
O1273       O  0.04575918  0.57331810  0.97999943    -0.80000
Cd1274     Cd  0.05344878  0.99581996  0.50535938     1.59700
Cd1275     Cd  0.47528998  0.97505722  0.97844181     1.59600
O1276       O  0.05747832  0.95324929  0.97800821    -0.80000
O1277       O  0.00435500  0.50488093  0.50836318    -1.90500
Cd1278     Cd  0.50216834  0.55198470  0.99580202     1.59900
O1279       O  0.00833634  0.94162228  0.95297870    -0.80000
O1280       O  0.47863708  0.58042338  0.53079625    -0.78600
C1281       C  0.43418091  0.95114437  0.54057609     0.83900
C1282       C  0.05750318  0.97442191  0.57705784     0.83600
O1283       O  0.47824822  0.54602275  0.57457230    -0.77600
C1284       C  0.07372223  0.56087644  0.97093779     0.84400
O1285       O  0.44978228  0.97232230  0.55858562    -0.77700
C1286       C  0.03983521  0.93621992  0.95754511     0.84500
C1287       C  0.45348618  0.53710815  0.93770145     0.84800
O1288       O  0.44913107  0.50575714  0.94312648    -0.80100
O1289       O  0.40258518  0.79840529  0.60293823    -0.77600
C1290       C  0.34612701  0.82017597  0.69981130     0.83400
O1291       O  0.31528343  0.87687382  0.57612560    -0.78700
O1292       O  0.34862418  0.92612085  0.68603591    -0.80200
O1293       O  0.45307362  0.90648760  0.64735669    -0.80000
O1294       O  0.44747987  0.83113697  0.60792549    -0.78600
Zn1295     Zn  0.36817475  0.82803408  0.62705817     1.55700
O1296       O  0.42592141  0.89712512  0.69540231    -0.80000
Cd1297     Cd  0.42599226  0.87729080  0.61468445     1.59700
Cd1298     Cd  0.35094349  0.90675602  0.60309659     1.59600
O1299       O  0.42901632  0.90090222  0.56913614    -0.80000
O1300       O  0.37940120  0.87436747  0.63053406    -1.90500
Cd1301     Cd  0.37867825  0.88504219  0.67918361     1.59900
O1302       O  0.38412974  0.93444117  0.57073926    -0.80000
O1303       O  0.35613401  0.84885001  0.70943332    -0.78600
C1304       C  0.31020915  0.84535060  0.57989692     0.83900
C1305       C  0.43356827  0.80431752  0.59756251     0.83600
O1306       O  0.35208948  0.80944770  0.67036772    -0.77600
C1307       C  0.45003922  0.90991327  0.67884265     0.84400
O1308       O  0.32850843  0.82753706  0.59878090    -0.77700
C1309       C  0.41342210  0.92684316  0.55932495     0.84500
C1310       C  0.32827359  0.94361530  0.66879987     0.84800
O1311       O  0.32520637  0.93989018  0.63699414    -0.80100
O1312       O  0.42261610  0.65153147  0.81001927    -0.77600
C1313       C  0.34731050  0.57176430  0.80637688     0.83400
O1314       O  0.32488099  0.69160983  0.87263464    -0.78700
O1315       O  0.32843854  0.57590366  0.90623423    -0.80200
O1316       O  0.44717188  0.58485933  0.90531417    -0.80000
O1317       O  0.45664736  0.65242273  0.85446861    -0.78600
Zn1318     Zn  0.37777140  0.63757879  0.82815202     1.55700
O1319       O  0.40482672  0.54855543  0.90425822    -0.80000
Cd1320     Cd  0.42779294  0.62963792  0.89004535     1.59700
Cd1321     Cd  0.35106124  0.65712346  0.90483599     1.59600
O1322       O  0.43236057  0.66007583  0.93073243    -0.80000
O1323       O  0.38065613  0.62688020  0.87541481    -1.90500
Cd1324     Cd  0.37038583  0.57851439  0.87855169     1.59900
O1325       O  0.38250156  0.68438129  0.93946920    -0.80000
O1326       O  0.35645375  0.55834999  0.83375861    -0.78600
C1327       C  0.32769183  0.69499221  0.84079302     0.83900
C1328       C  0.45034747  0.65917535  0.82408172     0.83600
O1329       O  0.35449603  0.60198460  0.79938843    -0.77600
C1330       C  0.43446069  0.55665437  0.91303876     0.84400
O1331       O  0.34747105  0.67676522  0.82366190    -0.77700
C1332       C  0.41399721  0.68107569  0.94606207     0.84500
C1333       C  0.31076756  0.59363610  0.92588677     0.84800
O1334       O  0.31609002  0.62509649  0.93026894    -0.80100
O1335       O  0.08861932  0.90543444  0.94764483    -0.77600
C1336       C  0.15967052  0.82620858  0.95107986     0.83400
O1337       O  0.18459010  0.94115802  0.87962701    -0.78700
O1338       O  0.18593746  0.82503681  0.85430023    -0.80200
O1339       O  0.05939567  0.83310645  0.85886433    -0.80000
O1340       O  0.04970103  0.90396134  0.90785340    -0.78600
Zn1341     Zn  0.13152295  0.89097776  0.92673147     1.55700
O1342       O  0.10653583  0.80366403  0.85155488    -0.80000
Cd1343     Cd  0.07874400  0.87942843  0.87154327     1.59700
Cd1344     Cd  0.15740195  0.90538510  0.85029868     1.59600
O1345       O  0.07513687  0.90780417  0.82963546    -0.80000
O1346       O  0.12767799  0.87780155  0.88144372    -1.90500
Cd1347     Cd  0.14104941  0.83043258  0.87928196     1.59900
O1348       O  0.12492138  0.93045954  0.81605293    -0.80000
O1349       O  0.14785737  0.81036993  0.92606769    -0.78600
C1350       C  0.17946634  0.94770342  0.91062688     0.83900
C1351       C  0.05934797  0.91256569  0.93700755     0.83600
O1352       O  0.15656446  0.85767534  0.95418427    -0.77600
C1353       C  0.07508459  0.80779270  0.84727772     0.84400
O1354       O  0.15908810  0.93082679  0.92809311    -0.77700
C1355       C  0.09314849  0.92686636  0.81148289     0.84500
C1356       C  0.19923215  0.84153026  0.83055625     0.84800
O1357       O  0.19059557  0.87186763  0.82411020    -0.80100
O1358       O  0.08854791  0.60164429  0.81009690    -0.77600
C1359       C  0.15954219  0.68091386  0.80664799     0.83400
O1360       O  0.18442430  0.56592328  0.87823649    -0.78700
O1361       O  0.18582108  0.68216825  0.90346678    -0.80200
O1362       O  0.05930628  0.67405339  0.89879234    -0.80000
O1363       O  0.04950005  0.60331289  0.84974991    -0.78600
Zn1364     Zn  0.13141313  0.61616708  0.83104419     1.55700
O1365       O  0.10643927  0.70353734  0.90603217    -0.80000
Cd1366     Cd  0.07856436  0.62773827  0.88610526     1.59700
Cd1367     Cd  0.15721664  0.60178975  0.90748080     1.59600
O1368       O  0.07485784  0.59931738  0.92797443    -0.80000
O1369       O  0.12752528  0.62937216  0.87630165    -1.90500
Cd1370     Cd  0.14094913  0.67674140  0.87841416     1.59900
O1371       O  0.12466688  0.57679450  0.94170557    -0.80000
O1372       O  0.14768395  0.69677790  0.83161909    -0.78600
C1373       C  0.17935317  0.55942206  0.84721829     0.83900
C1374       C  0.05922507  0.59460911  0.82065008     0.83600
O1375       O  0.15646742  0.64944184  0.80358622    -0.77600
C1376       C  0.07499747  0.69939073  0.91031454     0.84400
O1377       O  0.15902163  0.57635497  0.82975407    -0.77700
C1378       C  0.09287376  0.58031991  0.94619027     0.84500
C1379       C  0.19907169  0.66566040  0.92723074     0.84800
O1380       O  0.19040025  0.63532796  0.93365989    -0.80100
O1381       O  0.10689086  0.95555571  0.60319983    -0.77600
C1382       C  0.16091212  0.93530516  0.69919204     0.83400
O1383       O  0.19128580  0.88398807  0.57270969    -0.78700
O1384       O  0.15904801  0.82961858  0.67964186    -0.80200
O1385       O  0.05009353  0.85366447  0.65617605    -0.80000
O1386       O  0.05940592  0.92671170  0.61060795    -0.78600
Zn1387     Zn  0.14210532  0.92893065  0.62691771     1.55700
O1388       O  0.08643168  0.85468873  0.69826859    -0.80000
Cd1389     Cd  0.07889700  0.88020436  0.62085017     1.59700
Cd1390     Cd  0.15696509  0.85299695  0.60014308     1.59600
O1391       O  0.07476942  0.85289346  0.57817876    -0.80000
O1392       O  0.12794467  0.88299513  0.62992934    -1.90500
Cd1393     Cd  0.13019058  0.87023888  0.67688079     1.59900
O1394       O  0.12384792  0.82762256  0.56670633    -0.80000
O1395       O  0.15400174  0.90496617  0.70536091    -0.78600
C1396       C  0.19840299  0.91510953  0.57674762     0.83900
C1397       C  0.07532255  0.95200941  0.59946835     0.83600
O1398       O  0.15383545  0.94911061  0.67142682    -0.77600
C1399       C  0.05841405  0.84573694  0.68588075     0.84400
O1400       O  0.18314466  0.93309395  0.59819395    -0.77700
C1401       C  0.09237458  0.83231057  0.56123004     0.84500
C1402       C  0.17889183  0.81214730  0.66205481     0.84800
O1403       O  0.18331013  0.81763097  0.63074545    -0.80100
O1404       O  0.40235775  0.70845753  0.65473805    -0.77600
C1405       C  0.34576204  0.68655763  0.55805653     0.83400
O1406       O  0.31508656  0.62999003  0.68189474    -0.78700
O1407       O  0.34832691  0.58065181  0.57193538    -0.80200
O1408       O  0.45287000  0.60046632  0.61023971    -0.80000
O1409       O  0.44718390  0.67557900  0.65005320    -0.78600
Zn1410     Zn  0.36790328  0.67874717  0.63080500     1.55700
O1411       O  0.42549959  0.60962388  0.56228477    -0.80000
Cd1412     Cd  0.42575786  0.62946193  0.64303891     1.59700
Cd1413     Cd  0.35067443  0.60008097  0.65484260     1.59600
O1414       O  0.42891855  0.60562300  0.68841599    -0.80000
O1415       O  0.37913678  0.63241652  0.62732604    -1.90500
Cd1416     Cd  0.37833628  0.62174191  0.57866840     1.59900
O1417       O  0.38383447  0.57232683  0.68716160    -0.80000
O1418       O  0.35577729  0.65789968  0.54840389    -0.78600
C1419       C  0.31005983  0.66152278  0.67814269     0.83900
C1420       C  0.43331163  0.70249481  0.66021562     0.83600
O1421       O  0.35169608  0.69724162  0.58751992    -0.77600
C1422       C  0.44973428  0.59697632  0.57877527     0.84400
O1423       O  0.32834211  0.67930084  0.65921366    -0.77700
C1424       C  0.41322590  0.57980965  0.69839291     0.84500
C1425       C  0.32797909  0.56319013  0.58920046     0.84800
O1426       O  0.32488362  0.56697033  0.62099518    -0.80100
O1427       O  0.10687931  0.55148387  0.65446627    -0.77600
C1428       C  0.16110173  0.57154858  0.55846427     0.83400
O1429       O  0.19136358  0.62287918  0.68487269    -0.78700
O1430       O  0.15911116  0.67741844  0.57803375    -0.80200
O1431       O  0.05039660  0.65325123  0.60110763    -0.80000
O1432       O  0.05941656  0.58029319  0.64682401    -0.78600
Zn1433     Zn  0.14214251  0.57798615  0.63065125     1.55700
O1434       O  0.08676410  0.65208579  0.55904187    -0.80000
Cd1435     Cd  0.07901799  0.62675572  0.63655536     1.59700
Cd1436     Cd  0.15701516  0.65393054  0.65750809     1.59600
O1437       O  0.07475198  0.65417847  0.67914948    -0.80000
O1438       O  0.12807587  0.62394487  0.62762704    -1.90500
Cd1439     Cd  0.13046219  0.63667837  0.58068004     1.59900
O1440       O  0.12384643  0.67925734  0.69094217    -0.80000
O1441       O  0.15447309  0.60196606  0.55237125    -0.78600
C1442       C  0.19848849  0.59175933  0.68079231     0.83900
C1443       C  0.07530064  0.55504648  0.65811913     0.83600
O1444       O  0.15373174  0.55769697  0.58613295    -0.77600
C1445       C  0.05875345  0.66110785  0.57139772     0.84400
O1446       O  0.18323409  0.57379960  0.65931924    -0.77700
C1447       C  0.09232794  0.67466966  0.69623844     0.84500
C1448       C  0.17882622  0.69495259  0.59569157     0.84800
O1449       O  0.18324438  0.68942455  0.62699108    -0.80100
O1450       O  0.42267959  0.85546027  0.94754045    -0.77600
C1451       C  0.34738603  0.93516644  0.95132474     0.83400
O1452       O  0.32483717  0.81523654  0.88537387    -0.78700
O1453       O  0.32839134  0.93088418  0.85143254    -0.80200
O1454       O  0.44701746  0.92184373  0.85203346    -0.80000
O1455       O  0.45655453  0.85435662  0.90297217    -0.78600
Zn1456     Zn  0.37782179  0.86940475  0.92955703     1.55700
O1457       O  0.40480632  0.95828630  0.85339710    -0.80000
Cd1458     Cd  0.42763863  0.87711531  0.86744387     1.59700
Cd1459     Cd  0.35088031  0.84960592  0.85297637     1.59600
O1460       O  0.43208611  0.84665626  0.82680718    -0.80000
O1461       O  0.38056248  0.87992934  0.88223884    -1.90500
Cd1462     Cd  0.37034324  0.92829592  0.87907038     1.59900
O1463       O  0.38225084  0.82223613  0.81828722    -0.80000
O1464       O  0.35631328  0.94848007  0.92382313    -0.78600
C1465       C  0.32765872  0.81203001  0.91722958     0.83900
C1466       C  0.45034189  0.84772346  0.93340401     0.83600
O1467       O  0.35473379  0.90501512  0.95840878    -0.77600
C1468       C  0.43438663  0.95012987  0.84447945     0.84400
O1469       O  0.34745383  0.83032553  0.93426390    -0.77700
C1470       C  0.41372498  0.82559077  0.81158408     0.84500
C1471       C  0.31054203  0.91313064  0.83196796     0.84800
O1472       O  0.31574782  0.88163017  0.82768264    -0.80100
O1473       O  0.70969476  0.18458340  0.27660338    -0.77600
C1474       C  0.78515707  0.18107106  0.19702110     0.83400
O1475       O  0.80700703  0.24723000  0.31725637    -0.78700
O1476       O  0.80391216  0.28120553  0.20156136    -0.80200
O1477       O  0.68542296  0.28018696  0.21003901    -0.80000
O1478       O  0.67579236  0.22917465  0.27763401    -0.78600
Zn1479     Zn  0.75454895  0.20275508  0.26274036     1.55700
O1480       O  0.72761590  0.27879814  0.17361318    -0.80000
Cd1481     Cd  0.70462679  0.26483295  0.25487601     1.59700
Cd1482     Cd  0.78120501  0.27955326  0.28261569     1.59600
O1483       O  0.69999881  0.30550507  0.28540287    -0.80000
O1484       O  0.75171899  0.25014112  0.25217951    -1.90500
Cd1485     Cd  0.76205616  0.25336193  0.20384989     1.59900
O1486       O  0.74982239  0.31441821  0.30967150    -0.80000
O1487       O  0.77625676  0.20861547  0.18374527    -0.78600
C1488       C  0.80430834  0.21532816  0.32044026     0.83900
C1489       C  0.68203461  0.19873553  0.28434849     0.83600
O1490       O  0.77780673  0.17395568  0.22714515    -0.77600
C1491       C  0.69800324  0.28765356  0.18172278     0.84400
O1492       O  0.78474833  0.19819202  0.30198151    -0.77700
C1493       C  0.71831688  0.32094317  0.30635871     0.84500
C1494       C  0.82178230  0.30061288  0.21937685     0.84800
O1495       O  0.81653553  0.30484230  0.25083977    -0.80100
O1496       O  0.54331831  0.18481884  0.22661376    -0.77600
C1497       C  0.97292880  0.18131533  0.30616240     0.83400
O1498       O  0.94764626  0.25313878  0.19118963    -0.78700
O1499       O  0.94610334  0.27754120  0.30733360    -0.80200
O1500       O  0.57270358  0.27399555  0.29926824    -0.80000
O1501       O  0.58255895  0.22431369  0.22869784    -0.78600
Zn1502     Zn  0.00065072  0.20581829  0.24137206     1.55700
O1503       O  0.52559232  0.28090730  0.32885805    -0.80000
Cd1504     Cd  0.55355400  0.26094470  0.25296000     1.59700
Cd1505     Cd  0.97492415  0.28231987  0.22708767     1.59600
O1506       O  0.55718649  0.30271362  0.22426914    -0.80000
O1507       O  0.00469201  0.25110606  0.25460519    -1.90500
Cd1508     Cd  0.99135476  0.25306163  0.30198944     1.59900
O1509       O  0.50731496  0.31669433  0.20206196    -0.80000
O1510       O  0.98514422  0.20614356  0.32199470    -0.78600
C1511       C  0.95262655  0.22206674  0.18474295     0.83900
C1512       C  0.57273550  0.19527653  0.21978958     0.83600
O1513       O  0.97568270  0.17836842  0.27468332    -0.77600
C1514       C  0.55701861  0.28534503  0.32468489     0.84400
O1515       O  0.97288801  0.20457029  0.20171840    -0.77700
C1516       C  0.53915598  0.32103623  0.20537810     0.84500
C1517       C  0.93286034  0.30143125  0.29097380     0.84800
O1518       O  0.94168250  0.30817454  0.26077847    -0.80100
O1519       O  0.70968939  0.32250919  0.48134694    -0.77600
C1520       C  0.78521604  0.32590466  0.06100907     0.83400
O1521       O  0.80696870  0.25987093  0.44068637    -0.78700
O1522       O  0.80369943  0.22568392  0.05625469    -0.80200
O1523       O  0.68524166  0.22721341  0.04785334    -0.80000
O1524       O  0.67593742  0.27781245  0.47994715    -0.78600
Zn1525     Zn  0.75454305  0.30434466  0.49527398     1.55700
O1526       O  0.72755185  0.22829413  0.08416476    -0.80000
Cd1527     Cd  0.70464239  0.24220142  0.50295134     1.59700
Cd1528     Cd  0.78112296  0.22753285  0.47520962     1.59600
O1529       O  0.69997245  0.20135753  0.47260873    -0.80000
O1530       O  0.75164951  0.25696822  0.00570662    -1.90500
Cd1531     Cd  0.76199765  0.25368409  0.05400609     1.59900
O1532       O  0.74967848  0.19288210  0.44795747    -0.80000
O1533       O  0.77641048  0.29829654  0.07420720    -0.78600
C1534       C  0.80433166  0.29177934  0.43758067     0.83900
C1535       C  0.68212264  0.30829661  0.47337610     0.83600
O1536       O  0.77771206  0.33313786  0.03095115    -0.77600
C1537       C  0.69789138  0.21958833  0.07609962     0.84400
O1538       O  0.78481932  0.30892633  0.45608654    -0.77700
C1539       C  0.71823208  0.18616002  0.45142509     0.84500
C1540       C  0.82151668  0.20624710  0.03842854     0.84800
O1541       O  0.81629404  0.20208887  0.00695267    -0.80100
O1542       O  0.72967733  0.02950755  0.33367426    -0.77600
C1543       C  0.78636267  0.43282817  0.31229996     0.83400
O1544       O  0.81730309  0.05655928  0.25539187    -0.78700
O1545       O  0.78430834  0.44644513  0.20651460    -0.80200
O1546       O  0.67933490  0.48452386  0.22583579    -0.80000
O1547       O  0.68494123  0.02475966  0.30069045    -0.78600
Zn1548     Zn  0.76432525  0.00565370  0.30418769     1.55700
O1549       O  0.70689547  0.43661252  0.23484189    -0.80000
Cd1550     Cd  0.70646647  0.01757829  0.25470285     1.59700
Cd1551     Cd  0.78166284  0.02946316  0.22556562     1.59600
O1552       O  0.70330578  0.06290458  0.23075427    -0.80000
O1553       O  0.75312247  0.00197316  0.25787812    -1.90500
Cd1554     Cd  0.75393845  0.45320423  0.24734158     1.59900
O1555       O  0.74856264  0.06174834  0.19771133    -0.80000
O1556       O  0.77629581  0.42308950  0.28371773    -0.78600
C1557       C  0.82227866  0.05293567  0.28691816     0.83900
C1558       C  0.69872827  0.03492211  0.32762814     0.83600
O1559       O  0.78051185  0.46238067  0.32287867    -0.77600
C1560       C  0.68258840  0.45305560  0.22225148     0.84400
O1561       O  0.80389931  0.03414002  0.30474571    -0.77700
C1562       C  0.71911456  0.07292896  0.20505369     0.84500
C1563       C  0.80453019  0.46373371  0.18892114     0.84800
O1564       O  0.80746938  0.99558045  0.19251616    -0.80100
O1565       O  0.54345346  0.32224633  0.03062453    -0.77600
C1566       C  0.97288662  0.32560774  0.45134078     0.83400
O1567       O  0.94789852  0.25374370  0.06645119    -0.78700
O1568       O  0.94598028  0.22935651  0.45036797    -0.80200
O1569       O  0.57273924  0.23344038  0.45809077    -0.80000
O1570       O  0.58258867  0.28263466  0.02886742    -0.78600
Zn1571     Zn  0.00067001  0.30120679  0.01617571     1.55700
O1572       O  0.52550626  0.22600271  0.42882438    -0.80000
Cd1573     Cd  0.55365153  0.24607145  0.00447911     1.59700
Cd1574     Cd  0.97514901  0.22457558  0.03051086     1.59600
O1575       O  0.55752050  0.20412339  0.03290476    -0.80000
O1576       O  0.50470338  0.25585517  0.00291901    -1.90500
Cd1577     Cd  0.99119289  0.25387914  0.45564877     1.59900
O1578       O  0.50772466  0.19024478  0.05534808    -0.80000
O1579       O  0.98502177  0.30072539  0.43553988    -0.78600
C1580       C  0.95282613  0.28482633  0.07291980     0.83900
C1581       C  0.57280952  0.31173430  0.03761166     0.83600
O1582       O  0.97568124  0.32861205  0.48281170    -0.77600
C1583       C  0.55698257  0.22184157  0.43283665     0.84400
O1584       O  0.97300340  0.30240146  0.05591715    -0.77700
C1585       C  0.53953576  0.18583170  0.05187056     0.84500
C1586       C  0.93302336  0.20528237  0.46667230     0.84800
O1587       O  0.94204566  0.19847131  0.99686606    -0.80100
O1588       O  0.52589837  0.02886456  0.17686520    -0.77600
C1589       C  0.97174855  0.43298784  0.19655043     0.85000
O1590       O  0.94067140  0.05924750  0.24836588    -0.78700
O1591       O  0.97310611  0.45214578  0.30219208    -0.80200
O1592       O  0.58227496  0.47605992  0.27884284    -0.80000
O1593       O  0.57321898  0.02181621  0.20602655    -0.78600
Zn1594     Zn  0.99048149  0.00539134  0.20331621     1.55700
O1595       O  0.54601553  0.43386335  0.27774232    -0.80000
Cd1596     Cd  0.55344817  0.01129435  0.25230098     1.59700
Cd1597     Cd  0.97524332  0.03189842  0.27924147     1.59600
O1598       O  0.55739960  0.05386547  0.27969230    -0.80000
O1599       O  0.50440479  0.00217319  0.24930090    -1.90500
Cd1600     Cd  0.00226720  0.45506896  0.26177928     1.59900
O1601       O  0.50821659  0.06552942  0.30463760    -0.80000
O1602       O  0.97894609  0.42656964  0.22674629    -0.78600
C1603       C  0.93397821  0.05553499  0.21713684     0.83900
C1604       C  0.55743038  0.03273057  0.18057496     0.83600
O1605       O  0.97844302  0.46098262  0.18298293    -0.77600
C1606       C  0.57397993  0.44632998  0.28675991     0.84400
O1607       O  0.94967443  0.03443543  0.19911271    -0.77700
C1608       C  0.53972057  0.07093355  0.30009728     0.84500
C1609       C  0.95344734  0.46977253  0.31984528     0.84800
O1610       O  0.94916363  0.50116178  0.31457107    -0.80100
O1611       O  0.72988054  0.47735181  0.42423560    -0.77600
C1612       C  0.78663146  0.07398605  0.44559710     0.83400
O1613       O  0.81734291  0.45031385  0.00231622    -0.78700
O1614       O  0.78382959  0.06033914  0.05170599    -0.80200
O1615       O  0.67965566  0.02216749  0.03216440    -0.80000
O1616       O  0.68502159  0.48257649  0.45697109    -0.78600
Zn1617     Zn  0.76444442  0.50126865  0.45366848     1.55700
O1618       O  0.70675840  0.07016850  0.02238778    -0.80000
Cd1619     Cd  0.70652116  0.48933634  0.00300891     1.59700
Cd1620     Cd  0.78167004  0.47735107  0.03217381     1.59600
O1621       O  0.70336354  0.44386916  0.02669972    -0.80000
O1622       O  0.75323204  0.00491459  0.99992036    -1.90500
Cd1623     Cd  0.75397083  0.05360288  0.01051710     1.59900
O1624       O  0.74848903  0.44508592  0.05991904    -0.80000
O1625       O  0.77673670  0.08365090  0.47426842    -0.78600
C1626       C  0.82240963  0.45403986  0.47080637     0.83900
C1627       C  0.69887256  0.47217460  0.43015733     0.83600
O1628       O  0.78062331  0.04450654  0.43492853    -0.77600
C1629       C  0.68269781  0.05369628  0.03539501     0.84400
O1630       O  0.80406321  0.47290662  0.45303116    -0.77700
C1631       C  0.71907692  0.43388456  0.05247519     0.84500
C1632       C  0.80422472  0.04306354  0.06911433     0.84800
O1633       O  0.80742733  0.01126205  0.06524542    -0.80100
O1634       O  0.52596895  0.47833783  0.08080375    -0.77600
C1635       C  0.97143053  0.07397917  0.06095282     0.83400
O1636       O  0.94083903  0.44749072  0.00931375    -0.78700
O1637       O  0.97315540  0.05476879  0.45527247    -0.80200
O1638       O  0.58206963  0.03111144  0.47879111    -0.80000
O1639       O  0.57328803  0.48539570  0.05164205    -0.78600
Zn1640     Zn  0.99037997  0.50161181  0.05431327     1.55700
O1641       O  0.54579742  0.07329840  0.48000913    -0.80000
Cd1642     Cd  0.55345643  0.49583201  0.00537529     1.59700
Cd1643     Cd  0.97526819  0.47504005  0.47843370     1.59600
O1644       O  0.55749585  0.45320870  0.47808543    -0.80000
O1645       O  0.50437174  0.00489317  0.00837818    -1.90500
Cd1646     Cd  0.00215969  0.05196697  0.49579766     1.59900
O1647       O  0.50836497  0.44163589  0.45300869    -0.80000
O1648       O  0.97861885  0.08042048  0.03076061    -0.78600
C1649       C  0.93415132  0.45115486  0.04055077     0.83900
C1650       C  0.55749527  0.47446689  0.07708523     0.83600
O1651       O  0.97820975  0.04601005  0.07453042    -0.77600
C1652       C  0.57374888  0.06084581  0.47092628     0.84400
O1653       O  0.94976372  0.47231904  0.05856684    -0.77700
C1654       C  0.53985521  0.43620449  0.45759774     0.84500
C1655       C  0.95347472  0.03709680  0.43769283     0.84800
O1656       O  0.94912403  0.00574275  0.44310793    -0.80100
O1657       O  0.90257392  0.29841574  0.10292321    -0.77600
C1658       C  0.84611671  0.32020071  0.19977423     0.83400
O1659       O  0.81525925  0.37690049  0.07612132    -0.78700
O1660       O  0.84867228  0.42615308  0.18602014    -0.80200
O1661       O  0.95308203  0.40651716  0.14729811    -0.80000
O1662       O  0.94747005  0.33114732  0.10790211    -0.78600
Zn1663     Zn  0.86816831  0.32805529  0.12703009     1.55700
O1664       O  0.92596614  0.39712332  0.19535754    -0.80000
Cd1665     Cd  0.92598724  0.37730671  0.11464403     1.59700
Cd1666     Cd  0.85093387  0.40677221  0.10308435     1.59600
O1667       O  0.92897925  0.40089781  0.06908232    -0.80000
O1668       O  0.87940296  0.37438534  0.13050948    -1.90500
Cd1669     Cd  0.87870644  0.38505879  0.17915809     1.59900
O1670       O  0.88410991  0.43445785  0.07072556    -0.80000
O1671       O  0.85614178  0.34886792  0.20940220    -0.78600
C1672       C  0.81019069  0.34537583  0.07988585     0.83900
C1673       C  0.93355813  0.30432304  0.09755108     0.83600
O1674       O  0.85207563  0.30947300  0.17033105    -0.77600
C1675       C  0.95006864  0.40992857  0.17878796     0.84400
O1676       O  0.82850015  0.32756051  0.09875762    -0.77700
C1677       C  0.91339192  0.42685115  0.05929236     0.84500
C1678       C  0.82830810  0.44364027  0.16879162     0.84800
O1679       O  0.82521787  0.43990481  0.13699002    -0.80100
O1680       O  0.92264024  0.15153689  0.31000902    -0.77600
C1681       C  0.84731305  0.07179237  0.30633602     0.83400
O1682       O  0.82487357  0.19161566  0.37258375    -0.78700
O1683       O  0.82846815  0.07590905  0.40621763    -0.80200
O1684       O  0.94715427  0.08487276  0.40534186    -0.80000
O1685       O  0.95666648  0.15240840  0.35446476    -0.78600
Zn1686     Zn  0.87778359  0.13760313  0.32811896     1.55700
O1687       O  0.90483965  0.04853846  0.40420327    -0.80000
Cd1688     Cd  0.92779320  0.12964706  0.39003927     1.59700
Cd1689     Cd  0.85106217  0.15713990  0.40479217     1.59600
O1690       O  0.93235191  0.16009265  0.43072276    -0.80000
O1691       O  0.88066357  0.12689341  0.37538196    -1.90500
Cd1692     Cd  0.87040186  0.07852178  0.37851312     1.59900
O1693       O  0.88249472  0.18441078  0.43942753    -0.80000
O1694       O  0.85644901  0.05837660  0.33371946    -0.78600
C1695       C  0.82769853  0.19501590  0.34074517     0.83900
C1696       C  0.95037346  0.15916419  0.32407703     0.83600
O1697       O  0.85450697  0.10201112  0.29934727    -0.77600
C1698       C  0.93445655  0.05665125  0.41302762     0.84400
O1699       O  0.84749314  0.17680391  0.32361465    -0.77700
C1700       C  0.91398612  0.18109927  0.44603979     0.84500
C1701       C  0.81079271  0.09364200  0.42586630     0.84800
O1702       O  0.81610121  0.12510713  0.43023309    -0.80100
O1703       O  0.58864925  0.40543952  0.44766669    -0.77600
C1704       C  0.65968117  0.32617982  0.45107067     0.83400
O1705       O  0.68461145  0.44115289  0.37962476    -0.78700
O1706       O  0.68591187  0.32501948  0.35428256    -0.80200
O1707       O  0.55938638  0.33312963  0.35882797    -0.80000
O1708       O  0.54970243  0.40394218  0.40790336    -0.78600
Zn1709     Zn  0.63154484  0.39096738  0.42674104     1.55700
O1710       O  0.60651378  0.30365643  0.35155840    -0.80000
Cd1711     Cd  0.57873901  0.37943845  0.37156556     1.59700
Cd1712     Cd  0.65740619  0.40538214  0.35030460     1.59600
O1713       O  0.57513540  0.40785426  0.32968527    -0.80000
O1714       O  0.62767790  0.37779725  0.38145221    -1.90500
Cd1715     Cd  0.64103485  0.33042147  0.37928083     1.59900
O1716       O  0.62492716  0.43046875  0.31606301    -0.80000
O1717       O  0.64785608  0.31034721  0.42606035    -0.78600
C1718       C  0.67949906  0.44769147  0.41062782     0.83900
C1719       C  0.55936691  0.41255595  0.43705008     0.83600
O1720       O  0.65658200  0.35764723  0.45418030    -0.77600
C1721       C  0.57506784  0.30780183  0.34726013     0.84400
O1722       O  0.65912786  0.43080806  0.42809624    -0.77700
C1723       C  0.59314800  0.42689971  0.31151618     0.84500
C1724       C  0.69921328  0.34151620  0.33054442     0.84800
O1725       O  0.69058923  0.37185935  0.32410853    -0.80100
O1726       O  0.58854449  0.10163206  0.31007835    -0.77600
C1727       C  0.65954901  0.18087977  0.30661928     0.83400
O1728       O  0.68443877  0.06590843  0.37821340    -0.78700
O1729       O  0.68583944  0.18214818  0.40344551    -0.80200
O1730       O  0.55932223  0.17403006  0.39880733    -0.80000
O1731       O  0.54949252  0.10331294  0.34972685    -0.78600
Zn1732     Zn  0.63141478  0.11614059  0.33102473     1.55700
O1733       O  0.60645583  0.20352287  0.40601142    -0.80000
Cd1734     Cd  0.57856935  0.12771555  0.38609093     1.59700
Cd1735     Cd  0.65723133  0.10177097  0.40746030     1.59600
O1736       O  0.57487157  0.09927421  0.42794971    -0.80000
O1737       O  0.62753208  0.12935004  0.37628321    -1.90500
Cd1738     Cd  0.64096268  0.17671811  0.37839397     1.59900
O1739       O  0.62468838  0.07677242  0.44168926    -0.80000
O1740       O  0.64769600  0.19674388  0.33159316    -0.78600
C1741       C  0.67935816  0.05939935  0.34719859     0.83900
C1742       C  0.55921646  0.09460809  0.32062809     0.83600
O1743       O  0.65647465  0.14940745  0.30355887    -0.77600
C1744       C  0.57501654  0.19937441  0.41031139     0.84400
O1745       O  0.65901584  0.07632295  0.32973728    -0.77700
C1746       C  0.59289327  0.08028574  0.44616995     0.84500
C1747       C  0.69909605  0.16563877  0.42720563     0.84800
O1748       O  0.69042239  0.13530704  0.43363532    -0.80100
O1749       O  0.60686814  0.45558453  0.10323891    -0.77600
C1750       C  0.66090029  0.43527991  0.19920985     0.83400
O1751       O  0.69124610  0.38399555  0.07270954    -0.78700
O1752       O  0.65900438  0.32962287  0.17963140    -0.80200
O1753       O  0.55002607  0.35370322  0.15617910    -0.80000
O1754       O  0.55937257  0.42675060  0.11062291    -0.78600
Zn1755     Zn  0.64207502  0.42893526  0.12693524     1.55700
O1756       O  0.58638427  0.35468144  0.19825620    -0.80000
Cd1757     Cd  0.57884264  0.38023305  0.12085552     1.59700
Cd1758     Cd  0.65691177  0.35301077  0.10013865     1.59600
O1759       O  0.57470611  0.35292249  0.07818108    -0.80000
O1760       O  0.62789544  0.38300648  0.12993323    -1.90500
Cd1761     Cd  0.63014460  0.37024106  0.17688239     1.59900
O1762       O  0.62378376  0.32764951  0.06670419    -0.80000
O1763       O  0.65396790  0.40494688  0.20538127    -0.78600
C1764       C  0.69836804  0.41511549  0.07675254     0.83900
C1765       C  0.57529997  0.45204872  0.09949929     0.83600
O1766       O  0.65382939  0.44908971  0.17144572    -0.77600
C1767       C  0.55835575  0.34575356  0.18587521     0.84400
O1768       O  0.68310849  0.43309716  0.09820035    -0.77700
C1769       C  0.59231003  0.33233883  0.06123074     0.84500
C1770       C  0.67884337  0.31215125  0.16203941     0.84800
O1771       O  0.68325360  0.31763465  0.13072929    -0.80100
O1772       O  0.90238019  0.20845425  0.15472562    -0.77600
C1773       C  0.84577252  0.18658215  0.05803580     0.83400
O1774       O  0.81509570  0.13001910  0.18187101    -0.78700
O1775       O  0.84830763  0.08065320  0.07193495    -0.80200
O1776       O  0.95286046  0.10046526  0.11020167    -0.80000
O1777       O  0.94720057  0.17556963  0.15003128    -0.78600
Zn1778     Zn  0.86792046  0.17876210  0.13077931     1.55700
O1779       O  0.92547681  0.10962059  0.06225312    -0.80000
Cd1780     Cd  0.92576181  0.12946122  0.14300869     1.59700
Cd1781     Cd  0.85067998  0.10009803  0.15483305     1.59600
O1782       O  0.92893111  0.10562082  0.18838177    -0.80000
O1783       O  0.87913927  0.13242602  0.12730366    -1.90500
Cd1784     Cd  0.87831971  0.12174684  0.07864798     1.59900
O1785       O  0.88382940  0.07234807  0.18716484    -0.80000
O1786       O  0.85575874  0.15791118  0.04839008    -0.78600
C1787       C  0.81006844  0.16155088  0.17811167     0.83900
C1788       C  0.93333233  0.20248328  0.16020387     0.83600
O1789       O  0.85173012  0.19727368  0.08749181    -0.77600
C1790       C  0.94971468  0.09697236  0.07873869     0.84400
O1791       O  0.82835161  0.17932693  0.15918107    -0.77700
C1792       C  0.91322827  0.07982284  0.19838083     0.84500
C1793       C  0.82797262  0.06318671  0.08921086     0.84800
O1794       O  0.82488761  0.06697175  0.12100554    -0.80100
O1795       O  0.60686705  0.05150150  0.15444347    -0.77600
C1796       C  0.66107413  0.07157262  0.05842817     0.83400
O1797       O  0.69133865  0.12286843  0.18484640    -0.78700
O1798       O  0.65909893  0.17746058  0.07801998    -0.80200
O1799       O  0.55036310  0.15323377  0.10106866    -0.80000
O1800       O  0.55939539  0.08028932  0.14678453    -0.78600
Zn1801     Zn  0.64212002  0.07800177  0.13061206     1.55700
O1802       O  0.58675255  0.15212627  0.05901912    -0.80000
Cd1803     Cd  0.57899227  0.12675386  0.13651611     1.59700
Cd1804     Cd  0.65699301  0.15393221  0.15748521     1.59600
O1805       O  0.57471814  0.15418839  0.17910487    -0.80000
O1806       O  0.62805427  0.12395966  0.12759166    -1.90500
Cd1807     Cd  0.63045330  0.13671235  0.08064985     1.59900
O1808       O  0.62381471  0.17925739  0.19091302    -0.80000
O1809       O  0.65447024  0.10199776  0.05234252    -0.78600
C1810       C  0.69847434  0.09175266  0.18074906     0.83900
C1811       C  0.57528698  0.05505318  0.15809168     0.83600
O1812       O  0.65367765  0.05771488  0.08608683    -0.77600
C1813       C  0.55872883  0.16111782  0.07136919     0.84400
O1814       O  0.68322799  0.07380249  0.15926186    -0.77700
C1815       C  0.59229067  0.17467593  0.19619825     0.84500
C1816       C  0.67881393  0.19498400  0.09568956     0.84800
O1817       O  0.68323105  0.18943585  0.12698545    -0.80100
O1818       O  0.92268594  0.35548360  0.44754403    -0.77600
C1819       C  0.84739545  0.43518257  0.45132141     0.83400
O1820       O  0.82485888  0.31525894  0.38534968    -0.78700
O1821       O  0.82841979  0.43090798  0.35143268    -0.80200
O1822       O  0.94702740  0.42184817  0.35197754    -0.80000
O1823       O  0.95658160  0.35439494  0.40299014    -0.78600
Zn1824     Zn  0.87783215  0.36941928  0.42954722     1.55700
O1825       O  0.90483538  0.45831211  0.35339417    -0.80000
Cd1826     Cd  0.92766958  0.37712995  0.36744370     1.59700
Cd1827     Cd  0.85091752  0.34962743  0.35296183     1.59600
O1828       O  0.93212913  0.34663112  0.32684132    -0.80000
O1829       O  0.88059169  0.37995062  0.38223196    -1.90500
Cd1830     Cd  0.87037345  0.42832153  0.37907286     1.59900
O1831       O  0.88228638  0.32224388  0.31827927    -0.80000
O1832       O  0.85634341  0.44850558  0.42383054    -0.78600
C1833       C  0.82768071  0.31203850  0.41720412     0.83900
C1834       C  0.95035536  0.34775365  0.43341755     0.83600
O1835       O  0.85472574  0.40502397  0.45839324    -0.77600
C1836       C  0.93440191  0.45014219  0.34444257     0.84400
O1837       O  0.84747540  0.33032848  0.43424478    -0.77700
C1838       C  0.91376869  0.32557587  0.31160422     0.84500
C1839       C  0.81058177  0.41315401  0.33195759     0.84800
O1840       O  0.81579769  0.38165630  0.32766385    -0.80100
O1841       O  0.70973374  0.18454954  0.77658949    -0.77600
C1842       C  0.78518573  0.18104084  0.69701131     0.83400
O1843       O  0.80701455  0.24723691  0.81726462    -0.78700
O1844       O  0.80397359  0.28113944  0.70154291    -0.80200
O1845       O  0.68544848  0.28012654  0.70998545    -0.80000
O1846       O  0.67581859  0.22913164  0.77758012    -0.78600
Zn1847     Zn  0.75459053  0.20273199  0.76273879     1.55700
O1848       O  0.72767950  0.27880925  0.67360222    -0.80000
Cd1849     Cd  0.70465271  0.26478589  0.75482513     1.59700
Cd1850     Cd  0.78121373  0.27953985  0.78259791     1.59600
O1851       O  0.70000219  0.30545820  0.78534278    -0.80000
O1852       O  0.75174978  0.25011086  0.75215938    -1.90500
Cd1853     Cd  0.76209626  0.25332757  0.70383144     1.59900
O1854       O  0.74981178  0.31441309  0.80962378    -0.80000
O1855       O  0.77625076  0.20856674  0.68371938    -0.78600
C1856       C  0.80432268  0.21533509  0.82045849     0.83900
C1857       C  0.68206550  0.19869839  0.78431341     0.83600
O1858       O  0.77786756  0.17394413  0.72714810    -0.77600
C1859       C  0.69805313  0.28763743  0.68169254     0.84400
O1860       O  0.78477566  0.19818861  0.80199541    -0.77700
C1861       C  0.71830333  0.32091718  0.80629773     0.84500
C1862       C  0.82181440  0.30057213  0.71935951     0.84800
O1863       O  0.81653821  0.30482407  0.75081514    -0.80100
O1864       O  0.54331705  0.18482593  0.72660948    -0.77600
C1865       C  0.97293774  0.18133287  0.80622761     0.83400
O1866       O  0.94767516  0.25313533  0.69122290    -0.78700
O1867       O  0.94617484  0.27758678  0.80739117    -0.80200
O1868       O  0.57260808  0.27395138  0.79932442    -0.80000
O1869       O  0.58256067  0.22431451  0.72874780    -0.78600
Zn1870     Zn  0.00066958  0.20582340  0.74143168     1.55700
O1871       O  0.52545520  0.28096911  0.82882489    -0.80000
Cd1872     Cd  0.55352329  0.26093427  0.75298736     1.59700
Cd1873     Cd  0.97494609  0.28232477  0.72712083     1.59600
O1874       O  0.55720010  0.30271707  0.72431840    -0.80000
O1875       O  0.00471934  0.25111730  0.75464451    -1.90500
Cd1876     Cd  0.99140059  0.25307144  0.80203488     1.59900
O1877       O  0.50735368  0.31667408  0.70204065    -0.80000
O1878       O  0.98515281  0.20616372  0.82205539    -0.78600
C1879       C  0.95265418  0.22206050  0.68478844     0.83900
C1880       C  0.57274067  0.19528063  0.71981794     0.83600
O1881       O  0.97569889  0.17837899  0.77474970    -0.77600
C1882       C  0.55689534  0.28535878  0.82469785     0.84400
O1883       O  0.97290726  0.20456810  0.70177775    -0.77700
C1884       C  0.53918871  0.32102851  0.70539818     0.84500
C1885       C  0.93290418  0.30145257  0.79101860     0.84800
O1886       O  0.94169971  0.30817649  0.76081093    -0.80100
O1887       O  0.70965098  0.32254136  0.98132362    -0.77600
C1888       C  0.78527651  0.32588395  0.56099044     0.83400
O1889       O  0.80693216  0.25989774  0.94070516    -0.78700
O1890       O  0.80377053  0.22565693  0.55624857    -0.80200
O1891       O  0.68533277  0.22715487  0.54786158    -0.80000
O1892       O  0.67589836  0.27784379  0.97991709    -0.78600
Zn1893     Zn  0.75449587  0.30437783  0.99528346     1.55700
O1894       O  0.72763182  0.22827460  0.58418356    -0.80000
Cd1895     Cd  0.70458132  0.24223600  0.00294695     1.59700
Cd1896     Cd  0.78106659  0.22757167  0.97521767     1.59600
O1897       O  0.69991843  0.20137980  0.97261448    -0.80000
O1898       O  0.75170997  0.25693308  0.50570110    -1.90500
Cd1899     Cd  0.76206899  0.25365458  0.55400147     1.59900
O1900       O  0.74962696  0.19292953  0.94795840    -0.80000
O1901       O  0.77648150  0.29827282  0.57418920    -0.78600
C1902       C  0.80431561  0.29180817  0.93761450     0.83900
C1903       C  0.68208927  0.30832541  0.97334002     0.83600
O1904       O  0.77777054  0.33311237  0.53093161    -0.77600
C1905       C  0.69797602  0.21955364  0.57611738     0.84400
O1906       O  0.78480487  0.30895715  0.95612020    -0.77700
C1907       C  0.71818385  0.18619475  0.95142612     0.84500
C1908       C  0.82158386  0.20621596  0.53842459     0.84800
O1909       O  0.81635714  0.20205274  0.50694876    -0.80100
O1910       O  0.72971733  0.02953444  0.83368207    -0.77600
C1911       C  0.78638004  0.43280078  0.81230170     0.83400
O1912       O  0.81730377  0.05657748  0.75541475    -0.78700
O1913       O  0.78426842  0.44644029  0.70649661    -0.80200
O1914       O  0.67937586  0.48455412  0.72581966    -0.80000
O1915       O  0.68496174  0.02470173  0.80073816    -0.78600
Zn1916     Zn  0.76435255  0.00565116  0.80420488     1.55700
O1917       O  0.70687798  0.43662470  0.73490334    -0.80000
Cd1918     Cd  0.70648857  0.01759095  0.75473730     1.59700
Cd1919     Cd  0.78166816  0.02946467  0.72558912     1.59600
O1920       O  0.70334811  0.06296059  0.73085927    -0.80000
O1921       O  0.75314032  0.00197324  0.75790181    -1.90500
Cd1922     Cd  0.75393918  0.45319730  0.74735599     1.59900
O1923       O  0.74854858  0.06172987  0.69774558    -0.80000
O1924       O  0.77631824  0.42307160  0.78371393    -0.78600
C1925       C  0.82229475  0.05294009  0.78693788     0.83900
C1926       C  0.69875883  0.03491386  0.82765243     0.83600
O1927       O  0.78052575  0.46234924  0.82288978    -0.77600
C1928       C  0.68260288  0.45307875  0.72226684     0.84400
O1929       O  0.80393157  0.03412588  0.80476149    -0.77700
C1930       C  0.71912367  0.07294536  0.70512297     0.84500
C1931       C  0.80449927  0.46372770  0.68891124     0.84800
O1932       O  0.80746666  0.99558425  0.69253083    -0.80100
O1933       O  0.54344958  0.32223777  0.53069616    -0.77600
C1934       C  0.97287609  0.32560349  0.95138956     0.83400
O1935       O  0.94790842  0.25378745  0.56639431    -0.78700
O1936       O  0.94589837  0.22938854  0.95046395    -0.80200
O1937       O  0.57272782  0.23343823  0.95806372    -0.80000
O1938       O  0.58261212  0.28265581  0.52887327    -0.78600
Zn1939     Zn  0.00070308  0.30122127  0.51612516     1.55700
O1940       O  0.52549336  0.22597298  0.92880748    -0.80000
Cd1941     Cd  0.55366949  0.24608774  0.50450123     1.59700
Cd1942     Cd  0.97513623  0.22460022  0.53045549     1.59600
O1943       O  0.55755363  0.20415036  0.53293982    -0.80000
O1944       O  0.50471742  0.25586709  0.50294545    -1.90500
Cd1945     Cd  0.99114158  0.25386880  0.95570535     1.59900
O1946       O  0.50775971  0.19025434  0.55537561    -0.80000
O1947       O  0.98500124  0.30071524  0.93559078    -0.78600
C1948       C  0.95286437  0.28486173  0.57288191     0.83900
C1949       C  0.57281976  0.31174032  0.53764938     0.83600
O1950       O  0.97567138  0.32860961  0.98285981    -0.77600
C1951       C  0.55697264  0.22183035  0.93281223     0.84400
O1952       O  0.97305823  0.30242980  0.55588974    -0.77700
C1953       C  0.53957424  0.18585493  0.55190665     0.84500
C1954       C  0.93300206  0.20526990  0.96674980     0.84800
O1955       O  0.94201172  0.19851586  0.49681214    -0.80100
O1956       O  0.52589005  0.02886934  0.67684106    -0.77600
C1957       C  0.97171948  0.43299362  0.69666030     0.85000
O1958       O  0.94070118  0.05925683  0.74840815    -0.78700
O1959       O  0.97313848  0.45217399  0.80231491    -0.80200
O1960       O  0.58227493  0.47606408  0.77880168    -0.80000
O1961       O  0.57321345  0.02175747  0.70598186    -0.78600
Zn1962     Zn  0.99047634  0.00536584  0.70339104     1.55700
O1963       O  0.54607668  0.43381899  0.77758204    -0.80000
Cd1964     Cd  0.55343561  0.01127531  0.75226126     1.59700
Cd1965     Cd  0.97524695  0.03189624  0.77930210     1.59600
O1966       O  0.55740106  0.05386095  0.77963358    -0.80000
O1967       O  0.50439617  0.00214369  0.74926675    -1.90500
Cd1968     Cd  0.00224960  0.45508646  0.76187317     1.59900
O1969       O  0.50823159  0.06548551  0.80462247    -0.80000
O1970       O  0.97887672  0.42659445  0.72686909    -0.78600
C1971       C  0.93399224  0.05551671  0.71718542     0.83900
C1972       C  0.55742736  0.03270843  0.68054513     0.83600
O1973       O  0.97845566  0.46097080  0.68307855    -0.77600
C1974       C  0.57401417  0.44630815  0.78665327     0.84400
O1975       O  0.94965919  0.03438335  0.69917717    -0.77700
C1976       C  0.53972933  0.07090966  0.80006183     0.84500
C1977       C  0.95345717  0.46979655  0.81994597     0.84800
O1978       O  0.94914049  0.50117666  0.81464303    -0.80100
O1979       O  0.72983897  0.47737772  0.92420829    -0.77600
C1980       C  0.78658968  0.07401096  0.94563005     0.83400
O1981       O  0.81737915  0.45029399  0.50231206    -0.78700
O1982       O  0.78393891  0.06032833  0.55166070    -0.80200
O1983       O  0.67971144  0.02218081  0.53216810    -0.80000
O1984       O  0.68498395  0.48254702  0.95695825    -0.78600
Zn1985     Zn  0.76440151  0.50128191  0.95365990     1.55700
O1986       O  0.70683704  0.07017613  0.52242574    -0.80000
Cd1987     Cd  0.70656035  0.48936070  0.50302124     1.59700
Cd1988     Cd  0.78171173  0.47733837  0.53217963     1.59600
O1989       O  0.70338153  0.44389633  0.52671195    -0.80000
O1990       O  0.75328592  0.00490791  0.49991573    -1.90500
Cd1991     Cd  0.75403592  0.05359915  0.51050133     1.59900
O1992       O  0.74851976  0.44507510  0.55991665    -0.80000
O1993       O  0.77670413  0.08366221  0.97430918    -0.78600
C1994       C  0.82237180  0.45405527  0.97081054     0.83900
C1995       C  0.69883484  0.47217725  0.93013165     0.83600
O1996       O  0.78056578  0.04454015  0.93494476    -0.77600
C1997       C  0.68276689  0.05370674  0.53541977     0.84400
O1998       O  0.80402162  0.47291620  0.95303139    -0.77700
C1999       C  0.71909863  0.43389334  0.55247788     0.84500
C2000       C  0.80430430  0.04304613  0.56909746     0.84800
O2001       O  0.80747397  0.01123758  0.56525696    -0.80100
O2002       O  0.52596110  0.47830533  0.58082718    -0.77600
C2003       C  0.97150408  0.07399261  0.56094702     0.83400
O2004       O  0.94086173  0.44750537  0.50933689    -0.78700
O2005       O  0.97312632  0.05477060  0.95530588    -0.80200
O2006       O  0.58206883  0.03112468  0.97876256    -0.80000
O2007       O  0.57328519  0.48543117  0.55168915    -0.78600
Zn2008     Zn  0.99040462  0.50164670  0.55428879     1.55700
O2009       O  0.54580632  0.07332071  0.97998780    -0.80000
Cd2010     Cd  0.55345102  0.49582034  0.50541297     1.59700
Cd2011     Cd  0.97525835  0.47504142  0.97843677     1.59600
O2012       O  0.55749204  0.45324667  0.97800836    -0.80000
O2013       O  0.50436646  0.00485587  0.50840087    -1.90500
Cd2014     Cd  0.00214141  0.05196997  0.99582421     1.59900
O2015       O  0.50834842  0.44165919  0.95296336    -0.80000
O2016       O  0.97863782  0.08041109  0.53073693    -0.78600
C2017       C  0.93416610  0.45120160  0.54056843     0.83900
C2018       C  0.55749342  0.47446868  0.57711843     0.83600
O2019       O  0.97832442  0.04604037  0.57453803    -0.77600
C2020       C  0.57375237  0.06086053  0.97090031     0.84400
O2021       O  0.94976613  0.47239085  0.55856541    -0.77700
C2022       C  0.53984423  0.43624076  0.95752960     0.84500
C2023       C  0.95345337  0.03709796  0.93771821     0.84800
O2024       O  0.94911617  0.00573912  0.94311816    -0.80100
O2025       O  0.90262311  0.29844317  0.60290690    -0.77600
C2026       C  0.84613985  0.32017578  0.69976387     0.83400
O2027       O  0.81529470  0.37689426  0.57611110    -0.78700
O2028       O  0.84861622  0.42612506  0.68601881    -0.80200
O2029       O  0.95311286  0.40649165  0.64740547    -0.80000
O2030       O  0.94751647  0.33117996  0.60787490    -0.78600
Zn2031     Zn  0.86821123  0.32806288  0.62702816     1.55700
O2032       O  0.92590429  0.39717336  0.69542793    -0.80000
Cd2033     Cd  0.92603152  0.37732760  0.61470107     1.59700
Cd2034     Cd  0.85095357  0.40677891  0.60308434     1.59600
O2035       O  0.92906631  0.40099680  0.56918954    -0.80000
O2036       O  0.87942915  0.37439807  0.63052088    -1.90500
Cd2037     Cd  0.87868235  0.38505993  0.67917187     1.59900
O2038       O  0.88411950  0.43446467  0.57071663    -0.80000
O2039       O  0.85613230  0.34885188  0.70939542    -0.78600
C2040       C  0.81023882  0.34536710  0.57987222     0.83900
C2041       C  0.93360362  0.30435711  0.59752147     0.83600
O2042       O  0.85212048  0.30945338  0.67032245    -0.77600
C2043       C  0.95004683  0.40993792  0.67888627     0.84400
O2044       O  0.82855022  0.32755956  0.59874878    -0.77700
C2045       C  0.91343258  0.42689819  0.55933581     0.84500
C2046       C  0.82827629  0.44363119  0.66878370     0.84800
O2047       O  0.82521684  0.43991861  0.63697614    -0.80100
O2048       O  0.92265598  0.15153794  0.81006247    -0.77600
C2049       C  0.84731895  0.07180611  0.80636418     0.83400
O2050       O  0.82487366  0.19163307  0.87261602    -0.78700
O2051       O  0.82842528  0.07593475  0.90624932    -0.80200
O2052       O  0.94714380  0.08486614  0.90535448    -0.80000
O2053       O  0.95665290  0.15244661  0.85453910    -0.78600
Zn2054     Zn  0.87779075  0.13761214  0.82816264     1.55700
O2055       O  0.90480234  0.04856032  0.90425947    -0.80000
Cd2056     Cd  0.92777859  0.12965605  0.89009958     1.59700
Cd2057     Cd  0.85105013  0.15715603  0.90483833     1.59600
O2058       O  0.93233586  0.16006421  0.93081623    -0.80000
O2059       O  0.88065074  0.12690766  0.87543068    -1.90500
Cd2060     Cd  0.87037076  0.07854223  0.87855924     1.59900
O2061       O  0.88248786  0.18442002  0.93947168    -0.80000
O2062       O  0.85644069  0.05839693  0.83375599    -0.78600
C2063       C  0.82771007  0.19503158  0.84077737     0.83900
C2064       C  0.95037721  0.15918490  0.82414342     0.83600
O2065       O  0.85451603  0.10202429  0.79937514    -0.77600
C2066       C  0.93443222  0.05665539  0.91305784     0.84400
O2067       O  0.84750976  0.17681776  0.82365454    -0.77700
C2068       C  0.91397088  0.18108714  0.94611253     0.84500
C2069       C  0.81075862  0.09366716  0.92590628     0.84800
O2070       O  0.81608177  0.12512874  0.93028427    -0.80100
O2071       O  0.58861584  0.40544306  0.94760112    -0.77600
C2072       C  0.65966049  0.32619858  0.95101569     0.83400
O2073       O  0.68459519  0.44116363  0.87958330    -0.78700
O2074       O  0.68577205  0.32495276  0.85413291    -0.80200
O2075       O  0.55929246  0.33317857  0.85879498    -0.80000
O2076       O  0.54969301  0.40401706  0.90781296    -0.78600
Zn2077     Zn  0.63150974  0.39097354  0.92667343     1.55700
O2078       O  0.60638783  0.30364637  0.85157603    -0.80000
Cd2079     Cd  0.57871132  0.37947084  0.87149245     1.59700
Cd2080     Cd  0.65741367  0.40537685  0.85025165     1.59600
O2081       O  0.57514123  0.40785026  0.82958864    -0.80000
O2082       O  0.62765224  0.37779795  0.88138351    -1.90500
Cd2083     Cd  0.64096218  0.33040907  0.87922407     1.59900
O2084       O  0.62494751  0.43044623  0.81598085    -0.80000
O2085       O  0.64785762  0.31035723  0.92600059    -0.78600
C2086       C  0.67946752  0.44770043  0.91058456     0.83900
C2087       C  0.55934680  0.41259585  0.93697228     0.83600
O2088       O  0.65654361  0.35766396  0.95412282    -0.77600
C2089       C  0.57494852  0.30781955  0.84726442     0.84400
O2090       O  0.65908811  0.43081425  0.92803978    -0.77700
C2091       C  0.59316926  0.42687996  0.81141906     0.84500
C2092       C  0.69917240  0.34148011  0.83047110     0.84800
O2093       O  0.69063545  0.37185919  0.82408754    -0.80100
O2094       O  0.58855978  0.10160242  0.81004966    -0.77600
C2095       C  0.65957167  0.18085213  0.80658335     0.83400
O2096       O  0.68446550  0.06593739  0.87821397    -0.78700
O2097       O  0.68583259  0.18216460  0.90341728    -0.80200
O2098       O  0.55932034  0.17402380  0.89877890    -0.80000
O2099       O  0.54949988  0.10329816  0.84968991    -0.78600
Zn2100     Zn  0.63142664  0.11612157  0.83100227     1.55700
O2101       O  0.60644709  0.20353201  0.90596992    -0.80000
Cd2102     Cd  0.57856943  0.12771272  0.88605636     1.59700
Cd2103     Cd  0.65722704  0.10179013  0.90744403     1.59600
O2104       O  0.57487229  0.09927900  0.92791813    -0.80000
O2105       O  0.62753198  0.12935437  0.87625410    -1.90500
Cd2106     Cd  0.64096043  0.17672543  0.87835603     1.59900
O2107       O  0.62468866  0.07678043  0.94166188    -0.80000
O2108       O  0.64770906  0.19672804  0.83154604    -0.78600
C2109       C  0.67938377  0.05940221  0.84720465     0.83900
C2110       C  0.55922877  0.09458328  0.82059480     0.83600
O2111       O  0.65649625  0.14937887  0.80353362    -0.77600
C2112       C  0.57501036  0.19937207  0.91028044     0.84400
O2113       O  0.65903138  0.07630325  0.82973306    -0.77700
C2114       C  0.59289441  0.08029405  0.94614102     0.84500
C2115       C  0.69906202  0.16566807  0.92720133     0.84800
O2116       O  0.69037917  0.13534144  0.93363951    -0.80100
O2117       O  0.60687997  0.45559281  0.60325455    -0.77600
C2118       C  0.66092572  0.43529870  0.69921697     0.83400
O2119       O  0.69126675  0.38400568  0.57271175    -0.78700
O2120       O  0.65907480  0.32962843  0.67962912    -0.80200
O2121       O  0.55005938  0.35371878  0.65621682    -0.80000
O2122       O  0.55939220  0.42675032  0.61065085    -0.78600
Zn2123     Zn  0.64209843  0.42894726  0.62694318     1.55700
O2124       O  0.58644535  0.35464083  0.69827099    -0.80000
Cd2125     Cd  0.57887229  0.38024043  0.62088895     1.59700
Cd2126     Cd  0.65693842  0.35302185  0.60014497     1.59600
O2127       O  0.57472611  0.35292097  0.57822433    -0.80000
O2128       O  0.62792803  0.38301439  0.62995047    -1.90500
Cd2129     Cd  0.63019535  0.37023740  0.67689552     1.59900
O2130       O  0.62380392  0.32766184  0.56671895    -0.80000
O2131       O  0.65399917  0.40496342  0.70538824    -0.78600
C2132       C  0.69838726  0.41512580  0.57675348     0.83900
C2133       C  0.57531106  0.45205168  0.59952387     0.83600
O2134       O  0.65385762  0.44910623  0.67145079    -0.77600
C2135       C  0.55840281  0.34574014  0.68590078     0.84400
O2136       O  0.68312639  0.43310839  0.59819984    -0.77700
C2137       C  0.59232561  0.33234463  0.56126282     0.84500
C2138       C  0.67890038  0.31215339  0.66202514     0.84800
O2139       O  0.68329437  0.31763868  0.63071365    -0.80100
O2140       O  0.90242190  0.20843729  0.65474989    -0.77600
C2141       C  0.84583855  0.18655225  0.55803612     0.83400
O2142       O  0.81513949  0.12999851  0.68186589    -0.78700
O2143       O  0.84839447  0.08062754  0.57193773    -0.80200
O2144       O  0.95294212  0.10047120  0.61020530    -0.80000
O2145       O  0.94725146  0.17556042  0.65007672    -0.78600
Zn2146     Zn  0.86797164  0.17874193  0.63079002     1.55700
O2147       O  0.92555157  0.10963039  0.56226236    -0.80000
Cd2148     Cd  0.92583014  0.12944735  0.64302302     1.59700
Cd2149     Cd  0.85073349  0.10008095  0.65483899     1.59600
O2150       O  0.92899789  0.10557855  0.68838236    -0.80000
O2151       O  0.87920410  0.13240759  0.62731886    -1.90500
Cd2152     Cd  0.87839218  0.12172890  0.57866172     1.59900
O2153       O  0.88386294  0.07234574  0.68719761    -0.80000
O2154       O  0.85582320  0.15787964  0.54839688    -0.78600
C2155       C  0.81010507  0.16152852  0.67810474     0.83900
C2156       C  0.93337284  0.20247165  0.66024270     0.83600
O2157       O  0.85179505  0.19724811  0.58749180    -0.77600
C2158       C  0.94979348  0.09698372  0.57874177     0.84400
O2159       O  0.82838769  0.17930892  0.65917729    -0.77700
C2160       C  0.91326750  0.07980636  0.69840731     0.84500
C2161       C  0.82805086  0.06316314  0.58920552     0.84800
O2162       O  0.82495444  0.06694963  0.62099967    -0.80100
O2163       O  0.60687530  0.05148102  0.65442947    -0.77600
C2164       C  0.66114215  0.07157964  0.55845828     0.83400
O2165       O  0.69134299  0.12287800  0.68490988    -0.78700
O2166       O  0.65917559  0.17743693  0.57805624    -0.80200
O2167       O  0.55040450  0.15325401  0.60110576    -0.80000
O2168       O  0.55942053  0.08030843  0.64681414    -0.78600
Zn2169     Zn  0.64215346  0.07800101  0.63064718     1.55700
O2170       O  0.58680713  0.15217130  0.55906686    -0.80000
Cd2171     Cd  0.57903197  0.12676774  0.63655227     1.59700
Cd2172     Cd  0.65702245  0.15394741  0.65752901     1.59600
O2173       O  0.57475263  0.15418843  0.67914454    -0.80000
O2174       O  0.62809405  0.12396498  0.62762968    -1.90500
Cd2175     Cd  0.63050036  0.13671356  0.58068458     1.59900
O2176       O  0.62383581  0.17928286  0.69094834    -0.80000
O2177       O  0.65450325  0.10199518  0.55236054    -0.78600
C2178       C  0.69847129  0.09175924  0.68082365     0.83900
C2179       C  0.57529692  0.05504700  0.65808532     0.83600
O2180       O  0.65377448  0.05773041  0.58612870    -0.77600
C2181       C  0.55877605  0.16114979  0.57141075     0.84400
O2182       O  0.68322843  0.07380480  0.65933792    -0.77700
C2183       C  0.59231621  0.17468792  0.69623575     0.84500
C2184       C  0.67889044  0.19496400  0.59572130     0.84800
O2185       O  0.68329083  0.18943455  0.62702361    -0.80100
O2186       O  0.92268367  0.35549209  0.94759304    -0.77600
C2187       C  0.84736248  0.43519864  0.95133288     0.83400
O2188       O  0.82488264  0.31525398  0.88538676    -0.78700
O2189       O  0.82844012  0.43088237  0.85142566    -0.80200
O2190       O  0.94704116  0.42187306  0.85207917    -0.80000
O2191       O  0.95657850  0.35439022  0.90303847    -0.78600
Zn2192     Zn  0.87783250  0.36943997  0.92959475     1.55700
O2193       O  0.90482980  0.45831614  0.85345399    -0.80000
Cd2194     Cd  0.92767731  0.37713939  0.86749563     1.59700
Cd2195     Cd  0.85093880  0.34961748  0.85299628     1.59600
O2196       O  0.93215115  0.34666158  0.82687548    -0.80000
O2197       O  0.88059723  0.37995001  0.88227418    -1.90500
Cd2198     Cd  0.87036593  0.42831229  0.87909673     1.59900
O2199       O  0.88232238  0.32224183  0.81832300    -0.80000
O2200       O  0.85628168  0.44850190  0.92382483    -0.78600
C2201       C  0.82767655  0.31206036  0.91724618     0.83900
C2202       C  0.95035090  0.34775372  0.93346627     0.83600
O2203       O  0.85473199  0.40505655  0.95843471    -0.77600
C2204       C  0.93440886  0.45016158  0.84453388     0.84400
O2205       O  0.84745567  0.33036418  0.93429084    -0.77700
C2206       C  0.91380123  0.32559337  0.81164258     0.84500
C2207       C  0.81059918  0.41312486  0.83195800     0.84800
O2208       O  0.81580998  0.38162494  0.82767898    -0.80100
O2209       O  0.70969493  0.68462944  0.27664367    -0.77600
C2210       C  0.78512324  0.68108002  0.19704665     0.83400
O2211       O  0.80704855  0.74723430  0.31729386    -0.78700
O2212       O  0.80392958  0.78119676  0.20157032    -0.80200
O2213       O  0.68544550  0.78030006  0.21011733    -0.80000
O2214       O  0.67580203  0.72922884  0.27766694    -0.78600
Zn2215     Zn  0.75455921  0.70278563  0.26278618     1.55700
O2216       O  0.72760776  0.77885077  0.17366047    -0.80000
Cd2217     Cd  0.70465506  0.76488999  0.25493291     1.59700
Cd2218     Cd  0.78125719  0.77956074  0.28264601     1.59600
O2219       O  0.70006099  0.80555345  0.28547604    -0.80000
O2220       O  0.75174054  0.75017024  0.25221849    -1.90500
Cd2221     Cd  0.76205069  0.75338211  0.20387923     1.59900
O2222       O  0.74990673  0.81444608  0.30970668    -0.80000
O2223       O  0.77620182  0.70861650  0.18376623    -0.78600
C2224       C  0.80432195  0.71533621  0.32048970     0.83900
C2225       C  0.68203367  0.69878617  0.28437807     0.83600
O2226       O  0.77781049  0.67398207  0.22718462    -0.77600
C2227       C  0.69801130  0.78774506  0.18178951     0.84400
O2228       O  0.78474797  0.69821161  0.30203523    -0.77700
C2229       C  0.71840289  0.82098816  0.30641319     0.84500
C2230       C  0.82181597  0.80059321  0.21938179     0.84800
O2231       O  0.81658458  0.80482273  0.25084806    -0.80100
O2232       O  0.54341334  0.68484810  0.22666019    -0.77600
C2233       C  0.97287769  0.68125592  0.30613659     0.83400
O2234       O  0.94757401  0.75312271  0.19117406    -0.78700
O2235       O  0.94589383  0.77739199  0.30723454    -0.80200
O2236       O  0.57287724  0.77407135  0.29918693    -0.80000
O2237       O  0.58262881  0.72437437  0.22863029    -0.78600
Zn2238     Zn  0.00057030  0.70577873  0.24134318     1.55700
O2239       O  0.52581253  0.78088000  0.32887092    -0.80000
Cd2240     Cd  0.55365188  0.76100905  0.25291168     1.59700
Cd2241     Cd  0.97487758  0.78229076  0.22706062     1.59600
O2242       O  0.55723882  0.80277799  0.22422180    -0.80000
O2243       O  0.00460906  0.75105983  0.25458354    -1.90500
Cd2244     Cd  0.99121527  0.75301389  0.30195101     1.59900
O2245       O  0.50734081  0.81676013  0.20207186    -0.80000
O2246       O  0.98509558  0.70608543  0.32196523    -0.78600
C2247       C  0.95254998  0.72205143  0.18471966     0.83900
C2248       C  0.57281311  0.69531655  0.21978131     0.83600
O2249       O  0.97561331  0.67831651  0.27465495    -0.77600
C2250       C  0.55722579  0.78535820  0.32465071     0.84400
O2251       O  0.97280725  0.70454591  0.20169075    -0.77700
C2252       C  0.53918498  0.82110856  0.20536159     0.84500
C2253       C  0.93277395  0.80138011  0.29092040     0.84800
O2254       O  0.94169221  0.80818572  0.26076732    -0.80100
O2255       O  0.70969645  0.82258269  0.48139019    -0.77600
C2256       C  0.78524411  0.82589607  0.06101774     0.83400
O2257       O  0.80692390  0.75989138  0.44069899    -0.78700
O2258       O  0.80367890  0.72567355  0.05622674    -0.80200
O2259       O  0.68524501  0.72721407  0.04783945    -0.80000
O2260       O  0.67592389  0.77790128  0.47996719    -0.78600
Zn2261     Zn  0.75453800  0.80438670  0.49530675     1.55700
O2262       O  0.72755508  0.72830114  0.08415229    -0.80000
Cd2263     Cd  0.70460331  0.74226801  0.50296654     1.59700
Cd2264     Cd  0.78106862  0.72756330  0.47521990     1.59600
O2265       O  0.69991097  0.70143376  0.47261012    -0.80000
O2266       O  0.75163796  0.75698086  0.00570116    -1.90500
Cd2267     Cd  0.76199454  0.75369035  0.05399612     1.59900
O2268       O  0.74961644  0.69292235  0.44797047    -0.80000
O2269       O  0.77643713  0.79828677  0.07421188    -0.78600
C2270       C  0.80431122  0.79180258  0.43760470     0.83900
C2271       C  0.68212692  0.80838389  0.47340508     0.83600
O2272       O  0.77773281  0.83313634  0.03096390    -0.77600
C2273       C  0.69789837  0.71958828  0.07608432     0.84400
O2274       O  0.78481555  0.80895901  0.45611946    -0.77700
C2275       C  0.71816554  0.68622200  0.45143152     0.84500
C2276       C  0.82149107  0.70623477  0.03839975     0.84800
O2277       O  0.81627038  0.70208283  0.00692320    -0.80100
O2278       O  0.72961123  0.52951025  0.33366392    -0.77600
C2279       C  0.78639074  0.93283193  0.31228352     0.83400
O2280       O  0.81724872  0.55653916  0.25539821    -0.78700
O2281       O  0.78427631  0.94645000  0.20649291    -0.80200
O2282       O  0.67942810  0.98467019  0.22574962    -0.80000
O2283       O  0.68487651  0.52480003  0.30067272    -0.78600
Zn2284     Zn  0.76425693  0.50563501  0.30418671     1.55700
O2285       O  0.70686187  0.93671182  0.23488683    -0.80000
Cd2286     Cd  0.70638340  0.51749061  0.25469976     1.59700
Cd2287     Cd  0.78161181  0.52945024  0.22557162     1.59600
O2288       O  0.70316331  0.56273335  0.23062684    -0.80000
O2289       O  0.75306168  0.50194184  0.25787170    -1.90500
Cd2290     Cd  0.75394121  0.95323635  0.24734564     1.59900
O2291       O  0.74854179  0.56176759  0.19773430    -0.80000
O2292       O  0.77629329  0.92309426  0.28371095    -0.78600
C2293       C  0.82221861  0.55291226  0.28692370     0.83900
C2294       C  0.69866824  0.53495325  0.32761079     0.83600
O2295       O  0.78057449  0.96239258  0.32285676    -0.77600
C2296       C  0.68261733  0.95318774  0.22221947     0.84400
O2297       O  0.80383398  0.53411772  0.30474632    -0.77700
C2298       C  0.71904683  0.57286362  0.20501350     0.84500
C2299       C  0.80452308  0.96372461  0.18891247     0.84800
O2300       O  0.80743817  0.49559470  0.19250749    -0.80100
O2301       O  0.54349421  0.82229327  0.03063895    -0.77600
C2302       C  0.97290288  0.82553299  0.45129109     0.83400
O2303       O  0.94791212  0.75372719  0.06643076    -0.78700
O2304       O  0.94607382  0.72922074  0.45033291    -0.80200
O2305       O  0.57267787  0.73351130  0.45806592    -0.80000
O2306       O  0.58262606  0.78267784  0.02888106    -0.78600
Zn2307     Zn  0.00068300  0.80116084  0.01612752     1.55700
O2308       O  0.52541398  0.72602354  0.42886041    -0.80000
Cd2309     Cd  0.55367865  0.74611585  0.00449459     1.59700
Cd2310     Cd  0.97514530  0.72453837  0.03048919     1.59600
O2311       O  0.55754339  0.70416644  0.03292063    -0.80000
O2312       O  0.50473383  0.75590760  0.00294230    -1.90500
Cd2313     Cd  0.99124458  0.75380488  0.45561773     1.59900
O2314       O  0.50774614  0.69029409  0.05536354    -0.80000
O2315       O  0.98501344  0.80063706  0.43549411    -0.78600
C2316       C  0.95284961  0.78481079  0.07288885     0.83900
C2317       C  0.57285125  0.81177984  0.03762290     0.83600
O2318       O  0.97572181  0.82855013  0.48275860    -0.77600
C2319       C  0.55689697  0.72187791  0.43284186     0.84400
O2320       O  0.97302879  0.80237332  0.05587586    -0.77700
C2321       C  0.53955563  0.68587731  0.05188651     0.84500
C2322       C  0.93307110  0.70519049  0.46666570     0.84800
O2323       O  0.94201304  0.69844509  0.99685930    -0.80100
O2324       O  0.52590328  0.52885631  0.17686484    -0.77600
C2325       C  0.97176383  0.93299323  0.19659713     0.85000
O2326       O  0.94067377  0.55925872  0.24834055    -0.78700
O2327       O  0.97319264  0.95214156  0.30224897    -0.80200
O2328       O  0.58226187  0.97602617  0.27881585    -0.80000
O2329       O  0.57322698  0.52184394  0.20603121    -0.78600
Zn2330     Zn  0.99046253  0.50538995  0.20328238     1.55700
O2331       O  0.54596088  0.93386518  0.27779500    -0.80000
Cd2332     Cd  0.55346424  0.51132017  0.25231101     1.59700
Cd2333     Cd  0.97524907  0.53190126  0.27920884     1.59600
O2334       O  0.55739254  0.55390230  0.27969493    -0.80000
O2335       O  0.50442987  0.50216656  0.24930487    -1.90500
Cd2336     Cd  0.00230647  0.95508689  0.26180301     1.59900
O2337       O  0.50820413  0.56552406  0.30464824    -0.80000
O2338       O  0.97893994  0.92659074  0.22680033    -0.78600
C2339       C  0.93397419  0.55555325  0.21711185     0.83900
C2340       C  0.55743195  0.53274386  0.18057650     0.83600
O2341       O  0.97848613  0.96097480  0.18301608    -0.77600
C2342       C  0.57394913  0.94631156  0.28676896     0.84400
O2343       O  0.94966701  0.53445613  0.19908155    -0.77700
C2344       C  0.53970247  0.57095468  0.30010423     0.84500
C2345       C  0.95349329  0.96975095  0.31987529     0.84800
O2346       O  0.94916352  0.00112988  0.31457721    -0.80100
O2347       O  0.72995008  0.97738909  0.42420414    -0.77600
C2348       C  0.78657232  0.57396929  0.44560656     0.83400
O2349       O  0.81737983  0.95031408  0.00231004    -0.78700
O2350       O  0.78378781  0.56031721  0.05170213    -0.80200
O2351       O  0.67959076  0.52217609  0.03213315    -0.80000
O2352       O  0.68508257  0.98267428  0.45691715    -0.78600
Zn2353     Zn  0.76451651  0.00128091  0.45365250     1.55700
O2354       O  0.70672640  0.57016289  0.02237645    -0.80000
Cd2355     Cd  0.70658072  0.98935223  0.00299943     1.59700
Cd2356     Cd  0.78171929  0.97737205  0.03216531     1.59600
O2357       O  0.70344250  0.94385352  0.02664036    -0.80000
O2358       O  0.75317696  0.50489019  0.99992806    -1.90500
Cd2359     Cd  0.75392948  0.55357998  0.01051510     1.59900
O2360       O  0.74852155  0.94513006  0.05991712    -0.80000
O2361       O  0.77671749  0.58362173  0.47429482    -0.78600
C2362       C  0.82246064  0.95403115  0.47080022     0.83900
C2363       C  0.69893309  0.97225029  0.43011050     0.83600
O2364       O  0.78052737  0.54450171  0.43492375    -0.77600
C2365       C  0.68264972  0.55370230  0.03536683     0.84400
O2366       O  0.80411858  0.97290143  0.45302506    -0.77700
C2367       C  0.71912446  0.93390577  0.05244917     0.84500
C2368       C  0.80417282  0.54304263  0.06912268     0.84800
O2369       O  0.80736967  0.51123945  0.06526358    -0.80100
O2370       O  0.52594168  0.97836204  0.08079673    -0.77600
C2371       C  0.97136327  0.57395321  0.06094248     0.83400
O2372       O  0.94085116  0.94754929  0.00933136    -0.78700
O2373       O  0.97304555  0.55471327  0.45527228    -0.80200
O2374       O  0.58210242  0.53110523  0.47879261    -0.80000
O2375       O  0.57325162  0.98543977  0.05162558    -0.78600
Zn2376     Zn  0.99044083  0.00163697  0.05432941     1.55700
O2377       O  0.54588140  0.57333488  0.48010609    -0.80000
Cd2378     Cd  0.55341153  0.99583634  0.00535985     1.59700
Cd2379     Cd  0.97529366  0.97508906  0.47845273     1.59600
O2380       O  0.55749245  0.95321164  0.47805551    -0.80000
O2381       O  0.50441982  0.50490992  0.00839391    -1.90500
Cd2382     Cd  0.00208539  0.55195254  0.49576406     1.59900
O2383       O  0.50837361  0.94158579  0.45298177    -0.80000
O2384       O  0.97855804  0.58040059  0.03075280    -0.78600
C2385       C  0.93417918  0.95120880  0.04057207     0.83900
C2386       C  0.55747033  0.97451171  0.07707503     0.83600
O2387       O  0.97813105  0.54597860  0.07451391    -0.77600
C2388       C  0.57380308  0.56085731  0.47096904     0.84400
O2389       O  0.94981300  0.97235927  0.05858621    -0.77700
C2390       C  0.53987138  0.93618761  0.45757105     0.84500
C2391       C  0.95339098  0.53702725  0.43768033     0.84800
O2392       O  0.94907205  0.50566622  0.44308108    -0.80100
O2393       O  0.90261510  0.79840409  0.10292798    -0.77600
C2394       C  0.84614897  0.82017882  0.19977615     0.83400
O2395       O  0.81528485  0.87689096  0.07613101    -0.78700
O2396       O  0.84863240  0.92610744  0.18602135    -0.80200
O2397       O  0.95313263  0.90648006  0.14735629    -0.80000
O2398       O  0.94749962  0.83116554  0.10782877    -0.78600
Zn2399     Zn  0.86820577  0.82804734  0.12703155     1.55700
O2400       O  0.92594062  0.89718150  0.19539226    -0.80000
Cd2401     Cd  0.92602907  0.87731632  0.11466962     1.59700
Cd2402     Cd  0.85095967  0.90677200  0.10308275     1.59600
O2403       O  0.92905556  0.90098644  0.06915860    -0.80000
O2404       O  0.87943521  0.87438505  0.13051338    -1.90500
Cd2405     Cd  0.87871048  0.88504926  0.17916641     1.59900
O2406       O  0.88412183  0.93446785  0.07071003    -0.80000
O2407       O  0.85617751  0.84884220  0.20940837    -0.78600
C2408       C  0.81022234  0.84536479  0.07989177     0.83900
C2409       C  0.93359025  0.80432443  0.09751652     0.83600
O2410       O  0.85210076  0.80945778  0.17032854    -0.77600
C2411       C  0.95007944  0.90993676  0.17883695     0.84400
O2412       O  0.82853803  0.82754901  0.09875713    -0.77700
C2413       C  0.91343224  0.92689993  0.05932196     0.84500
C2414       C  0.82829351  0.94361724  0.16878806     0.84800
O2415       O  0.82523360  0.93990875  0.13698049    -0.80100
O2416       O  0.92258679  0.65148854  0.31000578    -0.77600
C2417       C  0.84725308  0.57176359  0.30634397     0.83400
O2418       O  0.82488825  0.69161373  0.37263276    -0.78700
O2419       O  0.82838736  0.57588213  0.40620548    -0.80200
O2420       O  0.94710314  0.58477695  0.40529225    -0.80000
O2421       O  0.95664137  0.65233000  0.35443895    -0.78600
Zn2422     Zn  0.87773868  0.63756215  0.32813451     1.55700
O2423       O  0.90474632  0.54848782  0.40421637    -0.80000
Cd2424     Cd  0.92776876  0.62957234  0.39001966     1.59700
Cd2425     Cd  0.85105508  0.65710082  0.40482520     1.59600
O2426       O  0.93236260  0.66000975  0.43070674    -0.80000
O2427       O  0.88062839  0.62684810  0.37539338    -1.90500
Cd2428     Cd  0.87033177  0.57848422  0.37851867     1.59900
O2429       O  0.88251566  0.68433106  0.43946598    -0.80000
O2430       O  0.85639115  0.55834119  0.33372287    -0.78600
C2431       C  0.82770035  0.69500723  0.34079169     0.83900
C2432       C  0.95033138  0.65910094  0.32405816     0.83600
O2433       O  0.85444611  0.60198382  0.29936195    -0.77600
C2434       C  0.93437941  0.55657479  0.41300814     0.84400
O2435       O  0.84746768  0.67677367  0.32365409    -0.77700
C2436       C  0.91401207  0.68101168  0.44604955     0.84500
C2437       C  0.81073684  0.59361841  0.42587259     0.84800
O2438       O  0.81607791  0.62507581  0.43025921    -0.80100
O2439       O  0.58870669  0.90549335  0.44763753    -0.77600
C2440       C  0.65970664  0.82627881  0.45108975     0.83400
O2441       O  0.68466962  0.94120626  0.37958768    -0.78700
O2442       O  0.68616443  0.82515950  0.35444834    -0.80200
O2443       O  0.55955248  0.83306459  0.35889335    -0.80000
O2444       O  0.54974802  0.90390543  0.40789140    -0.78600
Zn2445     Zn  0.63161178  0.89105416  0.42671992     1.55700
O2446       O  0.60674189  0.80372942  0.35146435    -0.80000
Cd2447     Cd  0.57882076  0.87941918  0.37156843     1.59700
Cd2448     Cd  0.65744746  0.90543394  0.35027458     1.59600
O2449       O  0.57515673  0.90780053  0.32966737    -0.80000
O2450       O  0.62775847  0.87785805  0.38144485    -1.90500
Cd2451     Cd  0.64118193  0.83050555  0.37928848     1.59900
O2452       O  0.62491786  0.93049224  0.31605719    -0.80000
O2453       O  0.64785463  0.81044279  0.42609398    -0.78600
C2454       C  0.67954822  0.94777177  0.41058534     0.83900
C2455       C  0.55940801  0.91255654  0.43702645     0.83600
O2456       O  0.65665512  0.85775339  0.45417148    -0.77600
C2457       C  0.57527599  0.80780459  0.34723481     0.84400
O2458       O  0.65916544  0.93091048  0.42806098    -0.77700
C2459       C  0.59314292  0.92688001  0.31150732     0.84500
C2460       C  0.69933555  0.84159577  0.33059709     0.84800
O2461       O  0.69059303  0.87188503  0.32406612    -0.80100
O2462       O  0.58849192  0.60171328  0.31006998    -0.77600
C2463       C  0.65952901  0.68093013  0.30663214     0.83400
O2464       O  0.68441220  0.56596107  0.37819061    -0.78700
O2465       O  0.68572165  0.68223233  0.40348754    -0.80200
O2466       O  0.55924322  0.67401984  0.39886954    -0.80000
O2467       O  0.54946870  0.60330351  0.34975339    -0.78600
Zn2468     Zn  0.63136919  0.61619366  0.33102778     1.55700
O2469       O  0.60634997  0.70357935  0.40597331    -0.80000
Cd2470     Cd  0.57852598  0.62772247  0.38612238     1.59700
Cd2471     Cd  0.65721099  0.60181794  0.40744457     1.59600
O2472       O  0.57487606  0.59926775  0.42797768    -0.80000
O2473       O  0.62748219  0.62939545  0.37628940    -1.90500
Cd2474     Cd  0.64087951  0.67677500  0.37838881     1.59900
O2475       O  0.62471326  0.57679800  0.44169357    -0.80000
O2476       O  0.64764882  0.69679712  0.33159098    -0.78600
C2477       C  0.67930914  0.55943956  0.34718273     0.83900
C2478       C  0.55918139  0.59464153  0.32063721     0.83600
O2479       O  0.65645954  0.64945657  0.30357591    -0.77600
C2480       C  0.57492191  0.69939882  0.41031964     0.84400
O2481       O  0.65895297  0.57635697  0.32973003    -0.77700
C2482       C  0.59291996  0.58029361  0.44619154     0.84500
C2483       C  0.69902426  0.66570772  0.42721191     0.84800
O2484       O  0.69040218  0.63535518  0.43360983    -0.80100
O2485       O  0.60686285  0.95565930  0.10321409    -0.77600
C2486       C  0.66092833  0.93541441  0.19917277     0.83400
O2487       O  0.69129082  0.88403312  0.07272579    -0.78700
O2488       O  0.65900888  0.82972389  0.17968285    -0.80200
O2489       O  0.55005953  0.85375229  0.15615201    -0.80000
O2490       O  0.55938136  0.92680854  0.11062400    -0.78600
Zn2491     Zn  0.64209175  0.92902658  0.12690180     1.55700
O2492       O  0.58636708  0.85482823  0.19826993    -0.80000
Cd2493     Cd  0.57887274  0.88029992  0.12084396     1.59700
Cd2494     Cd  0.65693993  0.85307205  0.10016444     1.59600
O2495       O  0.57475122  0.85299153  0.07816779    -0.80000
O2496       O  0.62792033  0.88309193  0.12993393    -1.90500
Cd2497     Cd  0.63014839  0.87035396  0.17689432     1.59900
O2498       O  0.62382231  0.82768993  0.06673097    -0.80000
O2499       O  0.65396804  0.90509066  0.20536440    -0.78600
C2500       C  0.69839274  0.91516292  0.07672845     0.83900
C2501       C  0.57529389  0.95211052  0.09948964     0.83600
O2502       O  0.65387964  0.94920860  0.17139500    -0.77600
C2503       C  0.55836457  0.84584749  0.18586621     0.84400
O2504       O  0.68310780  0.93316745  0.09813940    -0.77700
C2505       C  0.59235314  0.83239025  0.06123791     0.84500
C2506       C  0.67885212  0.81224368  0.16210083     0.84800
O2507       O  0.68326605  0.81771333  0.13078827    -0.80100
O2508       O  0.90230075  0.70843618  0.15471623    -0.77600
C2509       C  0.84573542  0.68656116  0.05800917     0.83400
O2510       O  0.81506310  0.63002417  0.18189264    -0.78700
O2511       O  0.84825229  0.58063298  0.07193673    -0.80200
O2512       O  0.95280011  0.60044763  0.11019162    -0.80000
O2513       O  0.94713814  0.67558330  0.14996759    -0.78600
Zn2514     Zn  0.86785149  0.67874597  0.13076286     1.55700
O2515       O  0.92541424  0.60959627  0.06224359    -0.80000
Cd2516     Cd  0.92570751  0.62946374  0.14298895     1.59700
Cd2517     Cd  0.85063450  0.60009269  0.15483596     1.59600
O2518       O  0.92888989  0.60565379  0.18837963    -0.80000
O2519       O  0.87908077  0.63241500  0.12729196    -1.90500
Cd2520     Cd  0.87826173  0.62172700  0.07863775     1.59900
O2521       O  0.88381252  0.57234964  0.18714955    -0.80000
O2522       O  0.85571318  0.65788668  0.04836712    -0.78600
C2523       C  0.81001974  0.66155279  0.17811985     0.83900
C2524       C  0.93325920  0.70247984  0.16017103     0.83600
O2525       O  0.85168647  0.69725103  0.08746715    -0.77600
C2526       C  0.94965138  0.59694862  0.07872937     0.84400
O2527       O  0.82828086  0.67932411  0.15916392    -0.77700
C2528       C  0.91320766  0.57983880  0.19836740     0.84500
C2529       C  0.82791983  0.56316885  0.08921756     0.84800
O2530       O  0.82483645  0.56696013  0.12101244    -0.80100
O2531       O  0.60685048  0.55150801  0.15441353    -0.77600
C2532       C  0.66103223  0.57158444  0.05839634     0.83400
O2533       O  0.69134684  0.62284167  0.18481118    -0.78700
O2534       O  0.65910251  0.67746630  0.07800677    -0.80200
O2535       O  0.55037611  0.65327139  0.10108062    -0.80000
O2536       O  0.55938657  0.58031977  0.14680611    -0.78600
Zn2537     Zn  0.64209113  0.57800733  0.13057661     1.55700
O2538       O  0.58675789  0.65215653  0.05902377    -0.80000
Cd2539     Cd  0.57899953  0.62677727  0.13652181     1.59700
Cd2540     Cd  0.65701948  0.65392369  0.15745887     1.59600
O2541       O  0.57475819  0.65421637  0.17911013    -0.80000
O2542       O  0.62805381  0.62396834  0.12757607    -1.90500
Cd2543     Cd  0.63045203  0.63672601  0.08063896     1.59900
O2544       O  0.62386996  0.67927003  0.19088937    -0.80000
O2545       O  0.65444711  0.60201419  0.05231697    -0.78600
C2546       C  0.69844926  0.59172026  0.18070728     0.83900
C2547       C  0.57527628  0.55507129  0.15808913     0.83600
O2548       O  0.65362939  0.55772519  0.08605152    -0.77600
C2549       C  0.55874112  0.66115677  0.07138088     0.84400
O2550       O  0.68318759  0.57378788  0.15921761    -0.77700
C2551       C  0.59234769  0.67470180  0.19618926     0.84500
C2552       C  0.67882861  0.69497993  0.09567229     0.84800
O2553       O  0.68326194  0.68941987  0.12696305    -0.80100
O2554       O  0.92271828  0.85543982  0.44751216    -0.77600
C2555       C  0.84743823  0.93516608  0.45131224     0.83400
O2556       O  0.82483742  0.81526503  0.38536839    -0.78700
O2557       O  0.82845528  0.93089186  0.35140558    -0.80200
O2558       O  0.94705255  0.92180327  0.35197109    -0.80000
O2559       O  0.95658612  0.85431353  0.40293721    -0.78600
Zn2560     Zn  0.87786105  0.86939809  0.42953772     1.55700
O2561       O  0.90487202  0.95828042  0.35340096    -0.80000
Cd2562     Cd  0.92767659  0.87707912  0.36740272     1.59700
Cd2563     Cd  0.85090495  0.84961045  0.35296788     1.59600
O2564       O  0.93210342  0.84660452  0.32676879    -0.80000
O2565       O  0.88060605  0.87992265  0.38221864    -1.90500
Cd2566     Cd  0.87039796  0.92829307  0.37905708     1.59900
O2567       O  0.88225139  0.82220269  0.31829509    -0.80000
O2568       O  0.85636331  0.94847639  0.42380843    -0.78600
C2569       C  0.82766681  0.81204740  0.41722200     0.83900
C2570       C  0.95037393  0.84768609  0.43337136     0.83600
O2571       O  0.85478285  0.90501384  0.45839585    -0.77600
C2572       C  0.93443797  0.95010677  0.34445246     0.84400
O2573       O  0.84747980  0.83032594  0.43425429    -0.77700
C2574       C  0.91372232  0.82553728  0.31157101     0.84500
C2575       C  0.81060220  0.91314459  0.33193856     0.84800
O2576       O  0.81579518  0.88164186  0.32765702    -0.80100
O2577       O  0.70970896  0.68461122  0.77659518    -0.77600
C2578       C  0.78514437  0.68108217  0.69701908     0.83400
O2579       O  0.80702752  0.74724419  0.81728506    -0.78700
O2580       O  0.80398641  0.78116950  0.70155820    -0.80200
O2581       O  0.68545942  0.78024700  0.71004777    -0.80000
O2582       O  0.67581008  0.72920509  0.77761077    -0.78600
Zn2583     Zn  0.75457343  0.70278065  0.76275596     1.55700
O2584       O  0.72767114  0.77888450  0.67364352    -0.80000
Cd2585     Cd  0.70466133  0.76486258  0.75487302     1.59700
Cd2586     Cd  0.78124311  0.77956524  0.78262447     1.59600
O2587       O  0.70003910  0.80552785  0.78540527    -0.80000
O2588       O  0.75175273  0.75016280  0.75218685    -1.90500
Cd2589     Cd  0.76209033  0.75338157  0.70385580     1.59900
O2590       O  0.74986453  0.81444293  0.80966897    -0.80000
O2591       O  0.77621218  0.70861179  0.68373173    -0.78600
C2592       C  0.80431060  0.71534477  0.82047923     0.83900
C2593       C  0.68204541  0.69876476  0.78432644     0.83600
O2594       O  0.77783800  0.67398916  0.72715954    -0.77600
C2595       C  0.69805622  0.78774068  0.68174698     0.84400
O2596       O  0.78475066  0.69821355  0.80201569    -0.77700
C2597       C  0.71835931  0.82096967  0.80635595     0.84500
C2598       C  0.82184405  0.80058664  0.71937587     0.84800
O2599       O  0.81657691  0.80483407  0.75083411    -0.80100
O2600       O  0.54339093  0.68487911  0.72663869    -0.77600
C2601       C  0.97287893  0.68127942  0.80619680     0.83400
O2602       O  0.94761708  0.75311961  0.69120682    -0.78700
O2603       O  0.94600194  0.77746446  0.80730737    -0.80200
O2604       O  0.57274160  0.77402363  0.79927824    -0.80000
O2605       O  0.58262324  0.72438280  0.72870819    -0.78600
Zn2606     Zn  0.00060101  0.70578069  0.74140030     1.55700
O2607       O  0.52561974  0.78097389  0.82884279    -0.80000
Cd2608     Cd  0.55360513  0.76100525  0.75296197     1.59700
Cd2609     Cd  0.97490387  0.78229589  0.72709648     1.59600
O2610       O  0.55725729  0.80278773  0.72429222    -0.80000
O2611       O  0.00464713  0.75107077  0.75462115    -1.90500
Cd2612     Cd  0.99128189  0.75302705  0.80199770     1.59900
O2613       O  0.50739067  0.81674506  0.70205534    -0.80000
O2614       O  0.98509526  0.70611127  0.82202262    -0.78600
C2615       C  0.95259102  0.72204643  0.68476158     0.83900
C2616       C  0.57280452  0.69533846  0.71981185     0.83600
O2617       O  0.97563244  0.67832836  0.77471749    -0.77600
C2618       C  0.55705238  0.78538539  0.82468571     0.84400
O2619       O  0.97284014  0.70454161  0.70174370    -0.77700
C2620       C  0.53922889  0.82110244  0.70539175     0.84500
C2621       C  0.93282433  0.80140481  0.79096972     0.84800
O2622       O  0.94169528  0.80817782  0.76079515    -0.80100
O2623       O  0.70965899  0.82257946  0.98136436    -0.77600
C2624       C  0.78529761  0.82589914  0.56102005     0.83400
O2625       O  0.80689491  0.75990368  0.94068810    -0.78700
O2626       O  0.80374102  0.72568505  0.55624362    -0.80200
O2627       O  0.68530488  0.72722701  0.54788438    -0.80000
O2628       O  0.67589620  0.77789013  0.97992913    -0.78600
Zn2629     Zn  0.75449796  0.80439192  0.99529859     1.55700
O2630       O  0.72762443  0.72831130  0.58418690    -0.80000
Cd2631     Cd  0.70456886  0.74226213  0.00293662     1.59700
Cd2632     Cd  0.78104256  0.72757943  0.97520470     1.59600
O2633       O  0.69989784  0.70142504  0.97258196    -0.80000
O2634       O  0.75167693  0.75697611  0.50571748    -1.90500
Cd2635     Cd  0.76205197  0.75369411  0.55401252     1.59900
O2636       O  0.74961143  0.69293774  0.94795012    -0.80000
O2637       O  0.77648861  0.79829406  0.57422060    -0.78600
C2638       C  0.80428813  0.79181546  0.93760746     0.83900
C2639       C  0.68209540  0.80837400  0.97337034     0.83600
O2640       O  0.77778837  0.83313184  0.53096362    -0.77600
C2641       C  0.69796339  0.71960441  0.57612844     0.84400
O2642       O  0.78479319  0.80896811  0.95612647    -0.77700
C2643       C  0.71816445  0.68622324  0.95140666     0.84500
C2644       C  0.82153594  0.70623095  0.53841658     0.84800
O2645       O  0.81629559  0.70206440  0.50694449    -0.80100
O2646       O  0.72965487  0.52950503  0.83367662    -0.77600
C2647       C  0.78639807  0.93282351  0.81229321     0.83400
O2648       O  0.81724618  0.55654530  0.75542107    -0.78700
O2649       O  0.78425841  0.94645454  0.70648696    -0.80200
O2650       O  0.67946232  0.98471123  0.72573173    -0.80000
O2651       O  0.68490378  0.52473934  0.80071551    -0.78600
Zn2652     Zn  0.76428834  0.50561314  0.80420425     1.55700
O2653       O  0.70685166  0.93673851  0.73492495    -0.80000
Cd2654     Cd  0.70641007  0.51749887  0.75472929     1.59700
Cd2655     Cd  0.78161670  0.52944044  0.72559213     1.59600
O2656       O  0.70320470  0.56278265  0.73071599    -0.80000
O2657       O  0.75308136  0.50193140  0.75789501    -1.90500
Cd2658     Cd  0.75394445  0.95324127  0.74735846     1.59900
O2659       O  0.74853109  0.56174150  0.69775883    -0.80000
O2660       O  0.77630489  0.92309299  0.78371600    -0.78600
C2661       C  0.82223066  0.55290863  0.78694399     0.83900
C2662       C  0.69870593  0.53492642  0.82763592     0.83600
O2663       O  0.78058086  0.96238154  0.82287358    -0.77600
C2664       C  0.68263264  0.95322374  0.72222156     0.84400
O2665       O  0.80386537  0.53409364  0.80476475    -0.77700
C2666       C  0.71905826  0.57287431  0.70506854     0.84500
C2667       C  0.80451039  0.96373069  0.68891297     0.84800
O2668       O  0.80743006  0.49558442  0.69251925    -0.80100
O2669       O  0.54345689  0.82228804  0.53072402    -0.77600
C2670       C  0.97286546  0.82553860  0.95134560     0.83400
O2671       O  0.94793408  0.75375652  0.56638687    -0.78700
O2672       O  0.94598475  0.72926171  0.95039766    -0.80200
O2673       O  0.57272957  0.73347407  0.95807118    -0.80000
O2674       O  0.58262079  0.78270939  0.52886628    -0.78600
Zn2675     Zn  0.00073617  0.80115633  0.51607817     1.55700
O2676       O  0.52548229  0.72600827  0.92883297    -0.80000
Cd2677     Cd  0.55365441  0.74614959  0.50449815     1.59700
Cd2678     Cd  0.97515799  0.72454938  0.53045366     1.59600
O2679       O  0.55754863  0.70420271  0.53292307    -0.80000
O2680       O  0.50470498  0.75593224  0.50297662    -1.90500
Cd2681     Cd  0.99118213  0.75381085  0.95566349     1.59900
O2682       O  0.50776333  0.69031120  0.55538087    -0.80000
O2683       O  0.98498477  0.80064799  0.93554666    -0.78600
C2684       C  0.95288976  0.78483673  0.57284665     0.83900
C2685       C  0.57283358  0.81179230  0.53765520     0.83600
O2686       O  0.97567148  0.82855047  0.98281398    -0.77600
C2687       C  0.55696209  0.72185924  0.93282984     0.84400
O2688       O  0.97308182  0.80238715  0.55583456    -0.77700
C2689       C  0.53957524  0.68590955  0.55189814     0.84500
C2690       C  0.93302238  0.70520078  0.96671732     0.84800
O2691       O  0.94201862  0.69846094  0.49682614    -0.80100
O2692       O  0.52590314  0.52890432  0.67684868    -0.77600
C2693       C  0.97177079  0.93297730  0.69668039     0.85000
O2694       O  0.94067566  0.55928401  0.74839710    -0.78700
O2695       O  0.97319246  0.95215051  0.80233451    -0.80200
O2696       O  0.58223849  0.97601982  0.77879286    -0.80000
O2697       O  0.57323268  0.52182827  0.70599016    -0.78600
Zn2698     Zn  0.99045552  0.50538177  0.70337501     1.55700
O2699       O  0.54599445  0.93381186  0.77767356    -0.80000
Cd2700     Cd  0.55346870  0.51132060  0.75227068     1.59700
Cd2701     Cd  0.97523063  0.53192030  0.77928789     1.59600
O2702       O  0.55740854  0.55390128  0.77965329    -0.80000
O2703       O  0.50443724  0.50216513  0.74927130    -1.90500
Cd2704     Cd  0.00228707  0.95508343  0.76188239     1.59900
O2705       O  0.50823453  0.56549151  0.80464863    -0.80000
O2706       O  0.97890691  0.92658975  0.72689511    -0.78600
C2707       C  0.93398134  0.55555905  0.71716899     0.83900
C2708       C  0.55743687  0.53276614  0.68055290     0.83600
O2709       O  0.97852424  0.96094549  0.68308907    -0.77600
C2710       C  0.57395587  0.94628453  0.78669680     0.84400
O2711       O  0.94966459  0.53443976  0.69915784    -0.77700
C2712       C  0.53972774  0.57093503  0.80008732     0.84500
C2713       C  0.95349117  0.96976336  0.81995309     0.84800
O2714       O  0.94915633  0.00113963  0.81464273    -0.80100
O2715       O  0.72988810  0.97742016  0.92419295    -0.77600
C2716       C  0.78652436  0.57399120  0.94562218     0.83400
O2717       O  0.81743085  0.95029084  0.50230657    -0.78700
O2718       O  0.78386722  0.56031120  0.55169181    -0.80200
O2719       O  0.67964068  0.52221605  0.53214323    -0.80000
O2720       O  0.68503549  0.98261822  0.95694100    -0.78600
Zn2721     Zn  0.76445834  0.00130375  0.95365338     1.55700
O2722       O  0.70679583  0.57019290  0.52239531    -0.80000
Cd2723     Cd  0.70662566  0.98936564  0.50298625     1.59700
Cd2724     Cd  0.78176622  0.97735567  0.53216126     1.59600
O2725       O  0.70347339  0.94385547  0.52660914    -0.80000
O2726       O  0.75322410  0.50489011  0.49993781    -1.90500
Cd2727     Cd  0.75399011  0.55358294  0.51051595     1.59900
O2728       O  0.74854504  0.94512374  0.55989803    -0.80000
O2729       O  0.77665840  0.58363749  0.97430865    -0.78600
C2730       C  0.82240743  0.95405018  0.97080348     0.83900
C2731       C  0.69888064  0.97223844  0.93011468     0.83600
O2732       O  0.78048894  0.54452308  0.93493484    -0.77600
C2733       C  0.68271033  0.55374116  0.53538150     0.84400
O2734       O  0.80406429  0.97291847  0.95302488    -0.77700
C2735       C  0.71914615  0.93390710  0.55242404     0.84500
C2736       C  0.80423585  0.54303089  0.56912622     0.84800
O2737       O  0.80741403  0.51122354  0.56527931    -0.80100
O2738       O  0.52592893  0.97830695  0.58081259    -0.77600
C2739       C  0.97142204  0.57399163  0.56090694     0.83400
O2740       O  0.94086370  0.94758117  0.50935234    -0.78700
O2741       O  0.97302758  0.55473294  0.95530364    -0.80200
O2742       O  0.58211624  0.53112713  0.97878265    -0.80000
O2743       O  0.57324305  0.98543757  0.55165926    -0.78600
Zn2744     Zn  0.99047916  0.00165779  0.55431452     1.55700
O2745       O  0.54588237  0.57334676  0.98006325    -0.80000
Cd2746     Cd  0.55341172  0.99581485  0.50538621     1.59700
Cd2747     Cd  0.97529014  0.97507871  0.97845585     1.59600
O2748       O  0.55747969  0.95323965  0.97802341    -0.80000
O2749       O  0.50441235  0.50489505  0.50843191    -1.90500
Cd2750     Cd  0.00206327  0.55195083  0.99580433     1.59900
O2751       O  0.50835294  0.94162167  0.95296254    -0.80000
O2752       O  0.97858870  0.58042202  0.53070656    -0.78600
C2753       C  0.93418959  0.95126735  0.54058943     0.83900
C2754       C  0.55746304  0.97448642  0.57709950     0.83600
O2755       O  0.97820758  0.54602631  0.57448798    -0.77600
C2756       C  0.57381220  0.56087418  0.97094639     0.84400
O2757       O  0.94982028  0.97243235  0.55858888    -0.77700
C2758       C  0.53985016  0.93621985  0.95754308     0.84500
C2759       C  0.95337376  0.53704914  0.93770702     0.84800
O2760       O  0.94906165  0.50568504  0.94309702    -0.80100
O2761       O  0.90267066  0.79842732  0.60292060    -0.77600
C2762       C  0.84617764  0.82018119  0.69977891     0.83400
O2763       O  0.81532606  0.87689989  0.57613524    -0.78700
O2764       O  0.84861602  0.92611119  0.68602884    -0.80200
O2765       O  0.95318471  0.90644816  0.64743813    -0.80000
O2766       O  0.94754755  0.83120646  0.60777042    -0.78600
Zn2767     Zn  0.86825865  0.82806319  0.62703764     1.55700
O2768       O  0.92591781  0.89721239  0.69544513    -0.80000
Cd2769     Cd  0.92607937  0.87734194  0.61471006     1.59700
Cd2770     Cd  0.85098877  0.90678835  0.60309203     1.59600
O2771       O  0.92913497  0.90109265  0.56925178    -0.80000
O2772       O  0.87947410  0.87440612  0.63052716    -1.90500
Cd2773     Cd  0.87871037  0.88506614  0.67918232     1.59900
O2774       O  0.88413146  0.93448966  0.57070762    -0.80000
O2775       O  0.85617992  0.84885307  0.70941242    -0.78600
C2776       C  0.81027285  0.84537231  0.57989322     0.83900
C2777       C  0.93363840  0.80435848  0.59747700     0.83600
O2778       O  0.85215273  0.80946087  0.67033536    -0.77600
C2779       C  0.95009174  0.90992810  0.67891161     0.84400
O2780       O  0.82859228  0.82756063  0.59875908    -0.77700
C2781       C  0.91346768  0.92695893  0.55936185     0.84500
C2782       C  0.82828537  0.94362478  0.66879097     0.84800
O2783       O  0.82524271  0.93992449  0.63698065    -0.80100
O2784       O  0.92259353  0.65149214  0.81004454    -0.77600
C2785       C  0.84725221  0.57177569  0.80636931     0.83400
O2786       O  0.82485529  0.69162769  0.87263378    -0.78700
O2787       O  0.82834400  0.57591294  0.90622790    -0.80200
O2788       O  0.94708795  0.58479236  0.90530492    -0.80000
O2789       O  0.95660566  0.65238490  0.85450857    -0.78600
Zn2790     Zn  0.87773117  0.63757859  0.82816112     1.55700
O2791       O  0.90471148  0.54852556  0.90427183    -0.80000
Cd2792     Cd  0.92773264  0.62959459  0.89007106     1.59700
Cd2793     Cd  0.85101478  0.65712703  0.90484724     1.59600
O2794       O  0.93231383  0.65999671  0.93078706    -0.80000
O2795       O  0.88059706  0.62687348  0.87542650    -1.90500
Cd2796     Cd  0.87029898  0.57851377  0.87855754     1.59900
O2797       O  0.88247788  0.68436533  0.93948065    -0.80000
O2798       O  0.85638202  0.55836369  0.83375631    -0.78600
C2799       C  0.82768508  0.69502307  0.84079390     0.83900
C2800       C  0.95032144  0.65913055  0.82411645     0.83600
O2801       O  0.85444209  0.60199611  0.79938276    -0.77600
C2802       C  0.93435592  0.55659943  0.91303980     0.84400
O2803       O  0.84746620  0.67679460  0.82366589    -0.77700
C2804       C  0.91396489  0.68102218  0.94609924     0.84500
C2805       C  0.81069133  0.59364644  0.92589523     0.84800
O2806       O  0.81603364  0.62510346  0.93028651    -0.80100
O2807       O  0.58866127  0.90548490  0.94761571    -0.77600
C2808       C  0.65967722  0.82626184  0.95104963     0.83400
O2809       O  0.68462311  0.94121471  0.87957367    -0.78700
O2810       O  0.68597085  0.82507082  0.85428980    -0.80200
O2811       O  0.55941792  0.83312911  0.85887946    -0.80000
O2812       O  0.54972151  0.90397076  0.90784845    -0.78600
Zn2813     Zn  0.63156299  0.89103556  0.92669243     1.55700
O2814       O  0.60656397  0.80371278  0.85151698    -0.80000
Cd2815     Cd  0.57876803  0.87945290  0.87153613     1.59700
Cd2816     Cd  0.65742666  0.90542245  0.85025487     1.59600
O2817       O  0.57513405  0.90781111  0.82962278    -0.80000
O2818       O  0.62770891  0.87784641  0.88141192    -1.90500
Cd2819     Cd  0.64107366  0.83047719  0.87925306     1.59900
O2820       O  0.62491232  0.93046324  0.81600596    -0.80000
O2821       O  0.64784733  0.81042383  0.92604511    -0.78600
C2822       C  0.67950377  0.94776203  0.91057539     0.83900
C2823       C  0.55937589  0.91258660  0.93699517     0.83600
O2824       O  0.65660039  0.85773253  0.95414258    -0.77600
C2825       C  0.57510790  0.80782996  0.84726510     0.84400
O2826       O  0.65912812  0.93088333  0.92804218    -0.77700
C2827       C  0.59313590  0.92686387  0.81145177     0.84500
C2828       C  0.69925813  0.84155376  0.83053431     0.84800
O2829       O  0.69061707  0.87188782  0.82407595    -0.80100
O2830       O  0.58853481  0.60166511  0.81006214    -0.77600
C2831       C  0.65954636  0.68091079  0.80658729     0.83400
O2832       O  0.68444218  0.56595320  0.87820077    -0.78700
O2833       O  0.68579608  0.68220132  0.90341544    -0.80200
O2834       O  0.55930486  0.67402784  0.89882733    -0.80000
O2835       O  0.54949813  0.60330019  0.84972963    -0.78600
Zn2836     Zn  0.63140956  0.61617198  0.83100491     1.55700
O2837       O  0.60642174  0.70356480  0.90596506    -0.80000
Cd2838     Cd  0.57856513  0.62772234  0.88609163     1.59700
Cd2839     Cd  0.65722820  0.60181439  0.90743496     1.59600
O2840       O  0.57489953  0.59928398  0.92795579    -0.80000
O2841       O  0.62751925  0.62938521  0.87626095    -1.90500
Cd2842     Cd  0.64093164  0.67676089  0.87835251     1.59900
O2843       O  0.62472721  0.57680074  0.94167845    -0.80000
O2844       O  0.64767363  0.69678013  0.83154854    -0.78600
C2845       C  0.67935138  0.55942730  0.84719175     0.83900
C2846       C  0.55921713  0.59461462  0.82062145     0.83600
O2847       O  0.65648000  0.64943639  0.80353672    -0.77600
C2848       C  0.57499084  0.69939192  0.91030051     0.84400
O2849       O  0.65900680  0.57634520  0.82972638    -0.77700
C2850       C  0.59293575  0.58030690  0.94617358     0.84500
C2851       C  0.69904526  0.66569842  0.92718390     0.84800
O2852       O  0.69038629  0.63536365  0.93361206    -0.80100
O2853       O  0.60687437  0.95564947  0.60321321    -0.77600
C2854       C  0.66095375  0.93544549  0.69916779     0.83400
O2855       O  0.69129858  0.88404228  0.57270105    -0.78700
O2856       O  0.65908655  0.82974694  0.67966935    -0.80200
O2857       O  0.55011209  0.85374898  0.65618894    -0.80000
O2858       O  0.55939976  0.92680176  0.61067387    -0.78600
Zn2859     Zn  0.64212106  0.92903606  0.62689588     1.55700
O2860       O  0.58643967  0.85479123  0.69828938    -0.80000
Cd2861     Cd  0.57890891  0.88029979  0.62087587     1.59700
Cd2862     Cd  0.65695949  0.85308091  0.60015238     1.59600
O2863       O  0.57476221  0.85300061  0.57820045    -0.80000
O2864       O  0.62795845  0.88309861  0.62994197    -1.90500
Cd2865     Cd  0.63020371  0.87036080  0.67690186     1.59900
O2866       O  0.62382482  0.82769872  0.56673361    -0.80000
O2867       O  0.65400080  0.90512007  0.70536234    -0.78600
C2868       C  0.69840691  0.91517069  0.57670289     0.83900
C2869       C  0.57530248  0.95209772  0.59951392     0.83600
O2870       O  0.65390816  0.94923360  0.67138581    -0.77600
C2871       C  0.55842716  0.84582726  0.68589527     0.84400
O2872       O  0.68313138  0.93317718  0.59811969    -0.77700
C2873       C  0.59235194  0.83240014  0.56125933     0.84500
C2874       C  0.67890743  0.81225591  0.66207323     0.84800
O2875       O  0.68329881  0.81771819  0.63075677    -0.80100
O2876       O  0.90235084  0.70843006  0.65474409    -0.77600
C2877       C  0.84578223  0.68655672  0.55802384     0.83400
O2878       O  0.81509315  0.63003230  0.68187770    -0.78700
O2879       O  0.84832345  0.58061303  0.57194917    -0.80200
O2880       O  0.95287206  0.60047968  0.61016405    -0.80000
O2881       O  0.94719357  0.67558274  0.65000142    -0.78600
Zn2882     Zn  0.86790651  0.67874709  0.63077343     1.55700
O2883       O  0.92546824  0.60963048  0.56222816    -0.80000
Cd2884     Cd  0.92577237  0.62946435  0.64298478     1.59700
Cd2885     Cd  0.85067801  0.60009904  0.65484672     1.59600
O2886       O  0.92896766  0.60561362  0.68835193    -0.80000
O2887       O  0.87913774  0.63241374  0.62730453    -1.90500
Cd2888     Cd  0.87831348  0.62172261  0.57865053     1.59900
O2889       O  0.88383214  0.57237967  0.68720198    -0.80000
O2890       O  0.85573539  0.65787051  0.54839246    -0.78600
C2891       C  0.81004970  0.66155979  0.67810145     0.83900
C2892       C  0.93330859  0.70247541  0.66020628     0.83600
O2893       O  0.85175852  0.69726046  0.58747219    -0.77600
C2894       C  0.94971573  0.59698747  0.57870189     0.84400
O2895       O  0.82831907  0.67933241  0.65915459    -0.77700
C2896       C  0.91324392  0.57984375  0.69839351     0.84500
C2897       C  0.82798401  0.56315380  0.58922707     0.84800
O2898       O  0.82489063  0.56695412  0.62102057    -0.80100
O2899       O  0.60686227  0.55152770  0.65439696    -0.77600
C2900       C  0.66109314  0.57162759  0.55841256     0.83400
O2901       O  0.69135045  0.62285234  0.68487276    -0.78700
O2902       O  0.65916741  0.67748951  0.57805560    -0.80200
O2903       O  0.55040651  0.65330388  0.60109160    -0.80000
O2904       O  0.55941396  0.58037866  0.64683752    -0.78600
Zn2905     Zn  0.64212408  0.57803721  0.63059641     1.55700
O2906       O  0.58681293  0.65223512  0.55905518    -0.80000
Cd2907     Cd  0.57903556  0.62682577  0.63654051     1.59700
Cd2908     Cd  0.65704736  0.65395565  0.65751037     1.59600
O2909       O  0.57478049  0.65426396  0.67912176    -0.80000
O2910       O  0.62809229  0.62400534  0.62760563    -1.90500
Cd2911     Cd  0.63050068  0.63676597  0.58066661     1.59900
O2912       O  0.62388734  0.67930325  0.69094308    -0.80000
O2913       O  0.65449733  0.60205532  0.55233102    -0.78600
C2914       C  0.69845283  0.59173064  0.68076670     0.83900
C2915       C  0.57529094  0.55510733  0.65808605     0.83600
O2916       O  0.65369536  0.55777026  0.58607020    -0.77600
C2917       C  0.55878009  0.66120651  0.57139904     0.84400
O2918       O  0.68320214  0.57380319  0.65926487    -0.77700
C2919       C  0.59236248  0.67473904  0.69622289     0.84500
C2920       C  0.67889110  0.69500256  0.59572326     0.84800
O2921       O  0.68331372  0.68944777  0.62701739    -0.80100
O2922       O  0.92268209  0.85544352  0.94755917    -0.77600
C2923       C  0.84738901  0.93518269  0.95132394     0.83400
O2924       O  0.82484504  0.81525920  0.88537720    -0.78700
O2925       O  0.82846002  0.93087965  0.85141439    -0.80200
O2926       O  0.94705150  0.92182072  0.85205448    -0.80000
O2927       O  0.95656552  0.85432387  0.90299527    -0.78600
Zn2928     Zn  0.87783295  0.86941413  0.92957490     1.55700
O2929       O  0.90486022  0.95828607  0.85345524    -0.80000
Cd2930     Cd  0.92767043  0.87709006  0.86745849     1.59700
Cd2931     Cd  0.85091460  0.84960799  0.85298633     1.59600
O2932       O  0.93212019  0.84662194  0.82682362    -0.80000
O2933       O  0.88059581  0.87992450  0.88225530    -1.90500
Cd2934     Cd  0.87038367  0.92829069  0.87908716     1.59900
O2935       O  0.88227813  0.82221236  0.81831648    -0.80000
O2936       O  0.85631112  0.94848346  0.92381603    -0.78600
C2937       C  0.82764817  0.81206107  0.91723478     0.83900
C2938       C  0.95034210  0.84769207  0.93342518     0.83600
O2939       O  0.85474768  0.90503719  0.95842306    -0.77600
C2940       C  0.93443365  0.95012064  0.84452731     0.84400
O2941       O  0.84744195  0.83035253  0.93427506    -0.77700
C2942       C  0.91375207  0.82555497  0.81161003     0.84500
C2943       C  0.81060789  0.91313265  0.83194694     0.84800
O2944       O  0.81580036  0.88162992  0.82766811    -0.80100
loop_ 
_geom_bond_atom_site_label_1 
_geom_bond_atom_site_label_2 
_geom_bond_distance 
_geom_bond_site_symmetry_2 
_ccdc_geom_bond_type 
O1           C17   1.274       .  A
O1           Zn7   2.003       .  S
C2           O18   1.272       .  A
C2           O15   1.273       .  A
C2          C315   1.468       .  S
O3           C16   1.285       .  A
O3          Cd10   2.155       .  S
O4           C22   1.269       .  A
O4          Cd13   2.003       .  S
O5           C19   1.273       .  A
O5           Cd9   2.043       .  S
O6           C17   1.270       .  A
O6           Cd9   2.043       .  S
Zn7          O18   2.048       .  S
Zn7          O20   1.984       .  S
Zn7          O12   1.943       .  S
O8           C19   1.270       .  A
O8          Cd13   2.091       .  S
Cd9          O11   2.037       .  S
Cd9          O12   1.964       .  S
Cd10         O14   2.158       .  S
Cd10         O23   2.147       .  S
Cd10         O12   2.056       .  S
O11          C21   1.268       .  A
O12         Cd13   1.980       .  S
Cd13         O15   2.037       .  S
O14          C21   1.286       .  A
C16          O20   1.271       .  A
C16         C223   1.478       .  S
C17         C255   1.450       .  S
C19         C298   1.470       .  S
C21         C252   1.477       .  S
C22          O23   1.286       .  A
C22         C186   1.471       .  S
O24          C40   1.271       .  A
O24       Zn1502   1.983       .  S
C25          O41   1.268       .  A
C25          O38   1.271       .  A
C25         C224   1.450       .  S
O26          C39   1.282       .  A
O26         Cd33   2.141       .  S
O27          C45   1.272       .  A
O27         Cd36   2.058       .  S
O28          C42   1.274       .  A
O28         Cd32   2.067       .  S
O29          C40   1.274       .  A
O29         Cd32   2.098       .  S
Zn30         O41   1.992       .  S
Zn30         O43   1.932       .  S
Zn30       O1496   1.983       .  S
Zn30         O35   1.890       .  S
O31          C42   1.272       .  A
O31       Cd1508   2.061   1_455  S
Cd32         O34   2.032       .  S
Cd32       O1507   1.985       .  S
Cd33         O46   2.149       .  S
Cd33       O1509   2.135       .  S
Cd33         O35   2.042       .  S
O34          C44   1.273       .  A
O35         Cd36   1.968       .  S
O35       Cd1504   1.985       .  S
Cd36         O38   2.054       .  S
Cd36       O1503   2.061       .  S
O37          C44   1.284       .  A
O37       Cd1505   2.135   1_455  S
C39          O43   1.265       .  A
C39         C316   1.469       .  S
C40         C343   1.472       .  S
C42         C249   1.459       .  S
C44         C295   1.472       .  S
C45          O46   1.286       .  A
C45         C366   1.477       .  S
O47          C63   1.274       .  A
O47         Zn53   2.003       .  S
C48          O64   1.272       .  A
C48          O61   1.272       .  A
C48         C200   1.468       .  S
O49          C62   1.285       .  A
O49         Cd56   2.153       .  S
O50          C68   1.268       .  A
O50         Cd59   2.001       .  S
O51          C65   1.273       .  A
O51        Cd423   2.044       .  S
O52          C63   1.270       .  A
O52         Cd55   2.043       .  S
Zn53         O66   1.984       .  S
Zn53        O432   2.048       .  S
Zn53        O426   1.943       .  S
O54          C65   1.270       .  A
O54         Cd59   2.088       .  S
Cd55         O57   2.038       .  S
Cd55        O419   2.044       .  S
Cd55        O426   1.963       .  S
Cd56         O60   2.157       .  S
Cd56        O437   2.147       .  S
Cd56        O426   2.055       .  S
O57          C67   1.268       .  A
O58        Zn421   1.943   1_554  S
O58         Cd59   1.979       .  S
O58        Cd423   1.963       .  S
O58        Cd424   2.055   1_554  S
Cd59         O61   2.036       .  S
O60          C67   1.285       .  A
C62          O66   1.271       .  A
C62         C361   1.477       .  S
C63         C232   1.450       .  S
O64        Zn421   2.048   1_554  S
C65         C344   1.468       .  S
C67         C275   1.477       .  S
C68          O69   1.285       .  A
C68         C301   1.471       .  S
O69        Cd424   2.147   1_554  S
O70          C86   1.272       .  A
O70         Zn76   2.046       .  S
C71          O87   1.274       .  A
C71          O84   1.271       .  A
C71         C367   1.471       .  S
O72          C85   1.284       .  A
O72         Cd79   2.143       .  S
O73          C91   1.272       .  A
O73         Cd82   2.047       .  S
O74          C88   1.271       .  A
O74        Cd814   2.053       .  S
O75          C86   1.274       .  A
O75         Cd78   2.047       .  S
Zn76         O89   1.941       .  S
Zn76        O823   1.991   1_545  S
Zn76         O81   1.909       .  S
O77          C88   1.272       .  A
O77         Cd82   2.045       .  S
Cd78         O80   2.053       .  S
Cd78        O810   2.053   1_545  S
Cd78         O81   1.960       .  S
Cd79         O83   2.153       .  S
Cd79         O92   2.149   1_545  S
Cd79         O81   2.041       .  S
O80          C90   1.270       .  A
O81        Cd818   1.990   1_545  S
Cd82         O84   2.088       .  S
Cd82        O817   1.990       .  S
O83          C90   1.286       .  A
C85          O89   1.268       .  A
C85         C209   1.468       .  S
C86         C269   1.468       .  S
O87        Zn812   1.991       .  S
C88         C278   1.446       .  S
C90         C338   1.478       .  S
C91         O828   1.285       .  A
C91         C206   1.477       .  S
O92         C827   1.285       .  A
O93         C109   1.271       .  A
O93       Zn1571   1.983       .  S
C94         O110   1.268       .  A
C94         O107   1.271       .  A
C94         C362   1.449       .  S
O95         C108   1.282       .  A
O95        Cd102   2.141       .  S
O96         C114   1.272       .  A
O96        Cd105   2.057       .  S
O97         C111   1.274       .  A
O97        Cd469   2.066       .  S
O98         C109   1.273       .  A
O98        Cd101   2.097       .  S
Zn99        O112   1.932       .  S
Zn99       O1565   1.983       .  S
Zn99        O478   1.991   1_554  S
Zn99       O1576   1.890       .  S
O100        C111   1.272       .  A
O100      Cd1577   2.058   1_455  S
Cd101       O103   2.032       .  S
Cd101       O465   2.065   1_554  S
Cd101       O104   1.985       .  S
Cd102       O115   2.149   1_554  S
Cd102      O1578   2.134       .  S
Cd102      O1576   2.040       .  S
O103        C113   1.273       .  A
O104      Zn1571   1.889       .  S
O104      Cd1574   2.040   1_455  S
O104      Cd1945   1.967   1_454  S
Cd105       O107   2.053       .  S
Cd105      O1572   2.058       .  S
Cd105      O1944   1.967       .  S
O106        C113   1.284       .  A
O106      Cd1574   2.133   1_455  S
C108        O112   1.265       .  A
C108        C201   1.469       .  S
C109        C297   1.471       .  S
O110       Zn467   1.991       .  S
C111        C272   1.458       .  S
C113        C341   1.472       .  S
C114        O483   1.286       .  A
C114        C228   1.477       .  S
O115        C482   1.286       .  A
O116        C132   1.271       .  A
O116      Zn1594   1.998   1_455  S
C117        O133   1.272       .  A
C117        O130   1.267       .  A
C117        C203   1.446       .  S
O118        C131   1.285       .  A
O118       Cd125   2.147       .  S
O119        C137   1.265       .  A
O119       Cd128   1.991       .  S
O120        C134   1.273       .  A
O120       Cd860   2.103       .  S
O121        C132   1.273       .  A
O121       Cd124   2.054       .  S
Zn122       O135   2.001       .  S
Zn122      O1588   1.997       .  S
Zn122       O869   2.006   1_545  S
Zn122      O1599   1.923       .  S
O123        C134   1.269       .  A
O123      Cd1600   2.036       .  S
Cd124       O126   2.026       .  S
Cd124       O856   2.104   1_545  S
Cd124       O127   1.986       .  S
Cd125      O1601   2.131       .  S
Cd125       O874   2.142       .  S
Cd125      O1599   2.045       .  S
O126        C136   1.273       .  A
O127      Zn1594   1.923   1_455  S
O127      Cd1597   2.045   1_455  S
O127      Cd2336   1.949   1_545  S
Cd128       O130   2.026       .  S
Cd128      O1595   2.035       .  S
Cd128      O2335   1.949       .  S
O129        C136   1.283       .  A
O129      Cd1597   2.131   1_455  S
C131        O135   1.271       .  A
C131        C320   1.479       .  S
C132        C339   1.452       .  S
O133       Zn858   2.006       .  S
C134        C251   1.472       .  S
C136        C270   1.471       .  S
C137        O138   1.283       .  A
C137        C364   1.469       .  S
O138       Cd861   2.142       .  S
O139        C155   1.272       .  A
O139       Zn145   2.044       .  S
C140        O156   1.274       .  A
C140        O153   1.271       .  A
C140        C229   1.471       .  S
O141        C522   1.284   1_554  A
O141       Cd148   2.143       .  S
O142        C160   1.272       .  A
O142       Cd151   2.046       .  S
O143        C157   1.271       .  A
O143       Cd883   2.053   1_545  S
O144        C155   1.274       .  A
O144       Cd515   2.048       .  S
Zn145       O158   1.939       .  S
Zn145       O892   1.989       .  S
Zn145      O1254   1.907       .  S
O146        C157   1.272       .  A
O146       Cd151   2.044       .  S
Cd147       O149   2.054       .  S
Cd147       O879   2.053       .  S
Cd147       O512   2.047   1_554  S
Cd147       O886   1.959   1_554  S
Cd148       O152   2.153       .  S
Cd148       O897   2.148       .  S
Cd148       O886   2.039   1_554  S
O149        C159   1.270       .  A
O150      Zn1249   1.907       .  S
O150       Cd151   1.989   1_556  S
O150       Cd883   1.959   1_546  S
O150       Cd884   2.039   1_546  S
Cd151       O521   2.088   1_554  S
O152        C159   1.286       .  A
O153       Cd519   2.088       .  S
C154        O158   1.267       .  A
C154        O509   1.284       .  A
C154        C347   1.468       .  S
C155        C246   1.468       .  S
O156       Zn881   1.989       .  S
C157        C324   1.446       .  S
C159        C292   1.478       .  S
C160        O161   1.285       .  A
C160        C321   1.476       .  S
O161       Cd884   2.148   1_545  S
O162        C178   1.271       .  A
O162      Zn1640   1.996   1_455  S
C163        O179   1.272       .  A
C163        O176   1.267       .  A
C163        C318   1.446       .  S
O164        C177   1.285       .  A
O164       Cd539   2.147   1_554  S
O165        C183   1.265       .  A
O165       Cd174   1.991       .  S
O166        C180   1.273       .  A
O166      Cd1274   2.103   1_545  S
O167        C178   1.273       .  A
O167       Cd170   2.054       .  S
Zn168       O181   2.000       .  S
Zn168      O1634   1.996       .  S
Zn168       O915   2.005       .  S
Zn168      O2381   1.922       .  S
O169        C180   1.269       .  A
O169      Cd1646   2.036       .  S
Cd170      O1270   2.102   1_554  S
Cd170       O540   2.026   1_554  S
Cd170       O909   1.986       .  S
Cd171       O532   2.147       .  S
Cd171      O1647   2.131       .  S
Cd171       O920   2.141       .  S
Cd171      O2749   2.044       .  S
O172        C182   1.273       .  A
O172       Cd538   2.026       .  S
O173      Zn2376   1.922   1_455  S
O173       Cd906   1.986   1_545  S
O173      Cd2747   2.045   1_444  S
O173      Cd2014   1.949   1_554  S
Cd174      O1641   2.036       .  S
Cd174       O544   2.027       .  S
Cd174      O2013   1.949       .  S
O175        C182   1.283       .  A
O175      Cd1643   2.131   1_455  S
O176       Cd542   2.027   1_554  S
C177        O181   1.271       .  A
C177        C205   1.479       .  S
C178        C293   1.452       .  S
O179       Zn904   2.005       .  S
C180        C274   1.471       .  S
C182        C247   1.471       .  S
C183        O184   1.283       .  A
C183        C226   1.469       .  S
O184       Cd907   2.141   1_545  S
O185        C201   1.272       .  A
O185       Zn191   2.048       .  S
C186        O202   1.274       .  A
C186        O199   1.271       .  A
O187        C200   1.284       .  A
O187       Cd194   2.142       .  S
O188        C206   1.272       .  A
O188       Cd197   2.047       .  S
O189        C203   1.271       .  A
O189       Cd193   2.053       .  S
O190        C201   1.274       .  A
O190       Cd193   2.048       .  S
Zn191       O202   1.991       .  S
Zn191       O204   1.939       .  S
Zn191       O196   1.908       .  S
O192        C203   1.272       .  A
O192       Cd197   2.043       .  S
Cd193       O195   2.055       .  S
Cd193       O196   1.960       .  S
Cd194       O198   2.154       .  S
Cd194       O207   2.150       .  S
Cd194       O196   2.040       .  S
O195        C205   1.270       .  A
O196       Cd197   1.990       .  S
Cd197       O199   2.089       .  S
O198        C205   1.286       .  A
C200        O204   1.268       .  A
C206        O207   1.285       .  A
O208        C224   1.274       .  A
O208       Zn214   2.003       .  S
C209        O225   1.272       .  A
C209        O222   1.273       .  A
O210        C223   1.285       .  A
O210       Cd217   2.155       .  S
O211        C229   1.268       .  A
O211       Cd220   2.004       .  S
O212        C226   1.273       .  A
O212       Cd216   2.042       .  S
O213        C224   1.270       .  A
O213       Cd216   2.042       .  S
Zn214       O225   2.047       .  S
Zn214       O227   1.983       .  S
Zn214       O219   1.941       .  S
O215        C226   1.270       .  A
O215       Cd220   2.090       .  S
Cd216       O218   2.036       .  S
Cd216       O219   1.965       .  S
Cd217       O221   2.158       .  S
Cd217       O230   2.146       .  S
Cd217       O219   2.054       .  S
O218        C228   1.268       .  A
O219       Cd220   1.978       .  S
Cd220       O222   2.038       .  S
O221        C228   1.286       .  A
C223        O227   1.270       .  A
C229        O230   1.286       .  A
O231        C247   1.271       .  A
O231       Zn237   1.984       .  S
C232        O248   1.268       .  A
C232        O245   1.272       .  A
O233        C246   1.282       .  A
O233       Cd240   2.139       .  S
O234        C252   1.271       .  A
O234       Cd243   2.055       .  S
O235        C249   1.274       .  A
O235       Cd239   2.065       .  S
O236        C247   1.273       .  A
O236       Cd239   2.095       .  S
Zn237       O248   1.992       .  S
Zn237       O250   1.932       .  S
Zn237       O242   1.890       .  S
O238        C249   1.272       .  A
O238       Cd243   2.061       .  S
Cd239       O241   2.030       .  S
Cd239       O242   1.985       .  S
Cd240       O244   2.133       .  S
Cd240       O253   2.150       .  S
Cd240       O242   2.041       .  S
O241        C251   1.273       .  A
O242       Cd243   1.966       .  S
Cd243       O245   2.054       .  S
O244        C251   1.284       .  A
C246        O250   1.265       .  A
C252        O253   1.286       .  A
O254        C270   1.271       .  A
O254       Zn260   1.984       .  S
C255        O271   1.268       .  A
C255        O268   1.271       .  A
O256        C269   1.282       .  A
O256       Cd263   2.139       .  S
O257        C275   1.272       .  A
O257       Cd266   2.056       .  S
O258        C272   1.274       .  A
O258       Cd262   2.064       .  S
O259        C270   1.273       .  A
O259       Cd262   2.095       .  S
Zn260       O271   1.992       .  S
Zn260       O273   1.932       .  S
Zn260       O265   1.889       .  S
O261        C272   1.272       .  A
O261       Cd266   2.059       .  S
Cd262       O264   2.030       .  S
Cd262       O265   1.986       .  S
Cd263       O267   2.132       .  S
Cd263       O276   2.149       .  S
Cd263       O265   2.041       .  S
O264        C274   1.273       .  A
O265       Cd266   1.967       .  S
Cd266       O268   2.054       .  S
O267        C274   1.284       .  A
C269        O273   1.265       .  A
C275        O276   1.286       .  A
O277        C293   1.271       .  A
O277       Zn283   1.998       .  S
C278        O294   1.272       .  A
C278        O291   1.267       .  A
O279        C292   1.284       .  A
O279       Cd286   2.145       .  S
O280        C298   1.265       .  A
O280       Cd289   1.990       .  S
O281        C295   1.273       .  A
O281       Cd285   2.106       .  S
O282        C293   1.273       .  A
O282       Cd285   2.054       .  S
Zn283       O294   2.006       .  S
Zn283       O296   2.002       .  S
Zn283       O288   1.923       .  S
O284        C295   1.269       .  A
O284       Cd289   2.036       .  S
Cd285       O287   2.029       .  S
Cd285       O288   1.986       .  S
Cd286       O290   2.130       .  S
Cd286       O299   2.144       .  S
Cd286       O288   2.044       .  S
O287        C297   1.273       .  A
O288       Cd289   1.948       .  S
Cd289       O291   2.027       .  S
O290        C297   1.283       .  A
C292        O296   1.271       .  A
C298        O299   1.283       .  A
O300        C316   1.272       .  A
O300       Zn306   2.047       .  S
C301        O317   1.274       .  A
C301        O314   1.271       .  A
O302        C315   1.284       .  A
O302       Cd309   2.142       .  S
O303        C321   1.272       .  A
O303       Cd312   2.046       .  S
O304        C318   1.271       .  A
O304       Cd308   2.052       .  S
O305        C316   1.274       .  A
O305       Cd308   2.048       .  S
Zn306       O317   1.990       .  S
Zn306       O319   1.939       .  S
Zn306       O311   1.908       .  S
O307        C318   1.272       .  A
O307       Cd312   2.043       .  S
Cd308       O310   2.054       .  S
Cd308       O311   1.960       .  S
Cd309       O313   2.154       .  S
Cd309       O322   2.150       .  S
Cd309       O311   2.040       .  S
O310        C320   1.270       .  A
O311       Cd312   1.990       .  S
Cd312       O314   2.088       .  S
O313        C320   1.286       .  A
C315        O319   1.268       .  A
C321        O322   1.285       .  A
O323        C339   1.271       .  A
O323       Zn329   1.998       .  S
C324        O340   1.272       .  A
C324        O337   1.267       .  A
O325        C338   1.285       .  A
O325       Cd332   2.145       .  S
O326        C344   1.265       .  A
O326       Cd335   1.988       .  S
O327        C341   1.273       .  A
O327       Cd331   2.104       .  S
O328        C339   1.273       .  A
O328       Cd331   2.055       .  S
Zn329       O340   2.007       .  S
Zn329       O342   2.002       .  S
Zn329       O334   1.922       .  S
O330        C341   1.269       .  A
O330       Cd335   2.036       .  S
Cd331       O333   2.029       .  S
Cd331       O334   1.985       .  S
Cd332       O336   2.130       .  S
Cd332       O345   2.143       .  S
Cd332       O334   2.043       .  S
O333        C343   1.273       .  A
O334       Cd335   1.948       .  S
Cd335       O337   2.026       .  S
O336        C343   1.283       .  A
C338        O342   1.271       .  A
C344        O345   1.283       .  A
O346        C362   1.274       .  A
O346       Zn352   2.001       .  S
C347        O363   1.272       .  A
C347        O360   1.273       .  A
O348        C361   1.285       .  A
O348       Cd355   2.154       .  S
O349        C367   1.268       .  A
O349       Cd358   2.002       .  S
O350        C364   1.273       .  A
O350       Cd354   2.042       .  S
O351        C362   1.270       .  A
O351       Cd354   2.042       .  S
Zn352       O363   2.046       .  S
Zn352       O365   1.982       .  S
Zn352       O357   1.941       .  S
O353        C364   1.270       .  A
O353       Cd358   2.090       .  S
Cd354       O356   2.035       .  S
Cd354       O357   1.965       .  S
Cd355       O359   2.159       .  S
Cd355       O368   2.148       .  S
Cd355       O357   2.054       .  S
O356        C366   1.268       .  A
O357       Cd358   1.978       .  S
Cd358       O360   2.038       .  S
O359        C366   1.286       .  A
C361        O365   1.270       .  A
C367        O368   1.286       .  A
O369        C385   1.274       .  A
O369       Zn375   2.003       .  S
C370        O386   1.272       .  A
C370        O383   1.273       .  A
C370        C683   1.468       .  S
O371        C384   1.285       .  A
O371       Cd378   2.155       .  S
O372        C390   1.269       .  A
O372       Cd381   2.003       .  S
O373        C387   1.273       .  A
O373       Cd377   2.043       .  S
O374        C385   1.270       .  A
O374       Cd377   2.043       .  S
Zn375       O386   2.048       .  S
Zn375       O388   1.984       .  S
Zn375       O380   1.943       .  S
O376        C387   1.270       .  A
O376       Cd381   2.091       .  S
Cd377       O379   2.037       .  S
Cd377       O380   1.964       .  S
Cd378       O382   2.158       .  S
Cd378       O391   2.147       .  S
Cd378       O380   2.056       .  S
O379        C389   1.268       .  A
O380       Cd381   1.980       .  S
Cd381       O383   2.037       .  S
O382        C389   1.286       .  A
C384        O388   1.271       .  A
C384        C591   1.478       .  S
C385        C623   1.450       .  S
C387        C666   1.470       .  S
C389        C620   1.477       .  S
C390        O391   1.286       .  A
C390        C554   1.471       .  S
O392        C408   1.271       .  A
O392      Zn1870   1.983       .  S
C393        O409   1.268       .  A
C393        O406   1.271       .  A
C393        C592   1.450       .  S
O394        C407   1.282       .  A
O394       Cd401   2.141       .  S
O395        C413   1.272       .  A
O395       Cd404   2.058       .  S
O396        C410   1.274       .  A
O396       Cd400   2.067       .  S
O397        C408   1.274       .  A
O397       Cd400   2.098       .  S
Zn398      O1864   1.983       .  S
Zn398       O409   1.992       .  S
Zn398       O411   1.932       .  S
Zn398       O403   1.890       .  S
O399        C410   1.272       .  A
O399      Cd1876   2.061   1_455  S
Cd400       O402   2.032       .  S
Cd400      O1875   1.985       .  S
Cd401      O1877   2.135       .  S
Cd401       O414   2.148       .  S
Cd401       O403   2.042       .  S
O402        C412   1.273       .  A
O403      Cd1872   1.985       .  S
O403       Cd404   1.968       .  S
Cd404      O1871   2.061       .  S
Cd404       O406   2.054       .  S
O405        C412   1.284       .  A
O405      Cd1873   2.135   1_455  S
C407        O411   1.265       .  A
C407        C684   1.469       .  S
C408        C711   1.471       .  S
C410        C617   1.459       .  S
C412        C663   1.472       .  S
C413        O414   1.286       .  A
C413        C734   1.477       .  S
O415        C431   1.274       .  A
O415       Zn421   2.003       .  S
C416        O432   1.272       .  A
C416        O429   1.272       .  A
C416        C568   1.468       .  S
O417        C430   1.285       .  A
O417       Cd424   2.153       .  S
O418        C436   1.268       .  A
O418       Cd427   2.001       .  S
O419        C433   1.273       .  A
O420        C431   1.270       .  A
O420       Cd423   2.043   1_556  S
Zn421       O434   1.984       .  S
O422        C433   1.270       .  A
O422       Cd427   2.088       .  S
Cd423       O425   2.038   1_554  S
Cd424       O428   2.157       .  S
O425        C435   1.268       .  A
O426       Cd427   1.979       .  S
Cd427       O429   2.036       .  S
O428        C435   1.285       .  A
C430        O434   1.271       .  A
C430        C729   1.477       .  S
C431        C600   1.450       .  S
C433        C712   1.469       .  S
C435        C643   1.477       .  S
C436        O437   1.285       .  A
C436        C669   1.471       .  S
O438        C454   1.272       .  A
O438       Zn444   2.046       .  S
C439        O455   1.274       .  A
C439        O452   1.271       .  A
C439        C735   1.471       .  S
O440        C453   1.284       .  A
O440       Cd447   2.143       .  S
O441        C459   1.273       .  A
O441       Cd450   2.047       .  S
O442        C456   1.271       .  A
O442      Cd1182   2.053       .  S
O443        C454   1.274       .  A
O443       Cd446   2.047       .  S
Zn444      O1191   1.991   1_545  S
Zn444       O457   1.941       .  S
Zn444       O449   1.909       .  S
O445        C456   1.272       .  A
O445       Cd450   2.045       .  S
Cd446      O1178   2.053   1_545  S
Cd446       O448   2.053       .  S
Cd446       O449   1.960       .  S
Cd447       O451   2.154       .  S
Cd447       O460   2.149   1_545  S
Cd447       O449   2.041       .  S
O448        C458   1.270       .  A
O449      Cd1186   1.990   1_545  S
Cd450       O452   2.088       .  S
Cd450      O1185   1.990       .  S
O451        C458   1.286       .  A
C453        O457   1.268       .  A
C453        C577   1.468       .  S
C454        C637   1.468       .  S
O455      Zn1180   1.991       .  S
C456        C646   1.446       .  S
C458        C706   1.478       .  S
C459       O1196   1.285       .  A
C459        C574   1.477       .  S
O460       C1195   1.285       .  A
O461        C477   1.271       .  A
O461      Zn1939   1.983       .  S
C462        O478   1.268       .  A
C462        O475   1.271       .  A
C462        C730   1.449       .  S
O463        C476   1.282       .  A
O463       Cd470   2.141       .  S
O464        C482   1.272       .  A
O464       Cd473   2.056       .  S
O465        C479   1.274       .  A
O466        C477   1.273       .  A
O466       Cd469   2.097       .  S
Zn467      O1933   1.983       .  S
Zn467       O480   1.932       .  S
Zn467      O1944   1.890       .  S
O468        C479   1.272       .  A
O468      Cd1945   2.058   1_455  S
Cd469       O471   2.032       .  S
Cd469       O472   1.985       .  S
Cd470      O1946   2.134       .  S
Cd470       O483   2.149       .  S
Cd470      O1944   2.040       .  S
O471        C481   1.273       .  A
O472      Zn1939   1.890       .  S
O472      Cd1942   2.040   1_455  S
O472      Cd1577   1.967   1_455  S
Cd473      O1940   2.058       .  S
Cd473       O475   2.053       .  S
Cd473      O1576   1.967   1_556  S
O474        C481   1.284       .  A
O474      Cd1942   2.133   1_455  S
C476        O480   1.265       .  A
C476        C569   1.469       .  S
C477        C665   1.471       .  S
C479        C640   1.458       .  S
C481        C709   1.472       .  S
C482        C596   1.477       .  S
O484        C500   1.271       .  A
O484      Zn1962   1.997   1_455  S
C485        O501   1.272       .  A
C485        O498   1.267       .  A
C485        C571   1.446       .  S
O486        C499   1.285       .  A
O486       Cd493   2.147       .  S
O487        C505   1.265       .  A
O487       Cd496   1.992       .  S
O488        C502   1.273       .  A
O488      Cd1228   2.103       .  S
O489        C500   1.273       .  A
O489       Cd492   2.054       .  S
Zn490      O1956   1.998       .  S
Zn490      O1237   2.006   1_545  S
Zn490       O503   2.001       .  S
Zn490      O1967   1.923       .  S
O491        C502   1.269       .  A
O491      Cd1968   2.036       .  S
Cd492      O1224   2.103   1_545  S
Cd492       O494   2.026       .  S
Cd492       O495   1.986       .  S
Cd493      O1969   2.131       .  S
Cd493      O1242   2.142       .  S
Cd493      O1967   2.045       .  S
O494        C504   1.273       .  A
O495      Zn1962   1.923   1_455  S
O495      Cd1965   2.045   1_455  S
O495      Cd2704   1.949   1_545  S
Cd496      O1963   2.036       .  S
Cd496       O498   2.026       .  S
Cd496      O2703   1.949       .  S
O497        C504   1.283       .  A
O497      Cd1965   2.131   1_455  S
C499        O503   1.271       .  A
C499        C688   1.479       .  S
C500        C707   1.452       .  S
O501      Zn1226   2.006       .  S
C502        C619   1.471       .  S
C504        C638   1.471       .  S
C505        O506   1.283       .  A
C505        C732   1.469       .  S
O506      Cd1229   2.142       .  S
O507        C523   1.272       .  A
O507       Zn513   2.044       .  S
C508        O524   1.274       .  A
C508        O521   1.271       .  A
C508        C597   1.471       .  S
O509       Cd516   2.143       .  S
O510        C528   1.272       .  A
O510       Cd519   2.047       .  S
O511        C525   1.271       .  A
O511      Cd1251   2.053   1_545  S
O512        C523   1.274       .  A
Zn513      O1260   1.989       .  S
Zn513       O526   1.939       .  S
Zn513       O886   1.907       .  S
O514        C525   1.272       .  A
O514       Cd519   2.045       .  S
Cd515      O1247   2.053       .  S
Cd515       O517   2.054       .  S
Cd515      O1254   1.959       .  S
Cd516       O520   2.153       .  S
Cd516      O1265   2.148       .  S
Cd516      O1254   2.039       .  S
O517        C527   1.270       .  A
O518       Zn881   1.907       .  S
O518      Cd1251   1.959   1_545  S
O518      Cd1252   2.039   1_545  S
O518       Cd519   1.989       .  S
O520        C527   1.286       .  A
C522        O526   1.267       .  A
C522        C715   1.468       .  S
C523        C614   1.468       .  S
O524      Zn1249   1.989       .  S
C525        C692   1.446       .  S
C527        C660   1.478       .  S
C528        O529   1.285       .  A
C528        C689   1.476       .  S
O529      Cd1252   2.148   1_545  S
O530        C546   1.271       .  A
O530      Zn2008   1.996   1_455  S
C531        O547   1.272       .  A
C531        O544   1.267       .  A
C531        C686   1.446       .  S
O532        C545   1.285       .  A
O533        C551   1.265       .  A
O533       Cd542   1.991       .  S
O534        C548   1.273       .  A
O534       Cd906   2.103   1_546  S
O535        C546   1.273       .  A
O535       Cd538   2.054       .  S
Zn536      O2002   1.996       .  S
Zn536      O1283   2.005       .  S
Zn536       O549   2.001       .  S
Zn536      O2749   1.922       .  S
O537        C548   1.269       .  A
O537      Cd2014   2.036       .  S
Cd538       O902   2.103       .  S
Cd538      O1277   1.985       .  S
Cd539      O2015   2.130       .  S
Cd539      O1288   2.141       .  S
Cd539      O2381   2.044   1_556  S
O540        C550   1.273       .  A
O541      Zn2744   1.922   1_455  S
O541      Cd1274   1.985   1_545  S
O541      Cd2379   2.044   1_445  S
O541      Cd1646   1.949       .  S
Cd542      O2009   2.036       .  S
Cd542      O1645   1.949   1_556  S
O543        C550   1.283       .  A
O543      Cd2011   2.131   1_455  S
C545        O549   1.271       .  A
C545        C573   1.479       .  S
C546        C661   1.452       .  S
O547      Zn1272   2.005       .  S
C548        C642   1.471       .  S
C550        C615   1.471       .  S
C551        O552   1.283       .  A
C551        C594   1.468       .  S
O552      Cd1275   2.141   1_545  S
O553        C569   1.272       .  A
O553       Zn559   2.048       .  S
C554        O570   1.274       .  A
C554        O567   1.271       .  A
O555        C568   1.284       .  A
O555       Cd562   2.142       .  S
O556        C574   1.272       .  A
O556       Cd565   2.047       .  S
O557        C571   1.271       .  A
O557       Cd561   2.053       .  S
O558        C569   1.274       .  A
O558       Cd561   2.049       .  S
Zn559       O570   1.991       .  S
Zn559       O572   1.940       .  S
Zn559       O564   1.908       .  S
O560        C571   1.272       .  A
O560       Cd565   2.043       .  S
Cd561       O563   2.056       .  S
Cd561       O564   1.960       .  S
Cd562       O566   2.154       .  S
Cd562       O575   2.150       .  S
Cd562       O564   2.040       .  S
O563        C573   1.270       .  A
O564       Cd565   1.990       .  S
Cd565       O567   2.088       .  S
O566        C573   1.286       .  A
C568        O572   1.268       .  A
C574        O575   1.285       .  A
O576        C592   1.274       .  A
O576       Zn582   2.003       .  S
C577        O593   1.272       .  A
C577        O590   1.273       .  A
O578        C591   1.285       .  A
O578       Cd585   2.155       .  S
O579        C597   1.268       .  A
O579       Cd588   2.003       .  S
O580        C594   1.273       .  A
O580       Cd584   2.042       .  S
O581        C592   1.270       .  A
O581       Cd584   2.042       .  S
Zn582       O593   2.047       .  S
Zn582       O595   1.983       .  S
Zn582       O587   1.941       .  S
O583        C594   1.270       .  A
O583       Cd588   2.090       .  S
Cd584       O586   2.036       .  S
Cd584       O587   1.965       .  S
Cd585       O589   2.157       .  S
Cd585       O598   2.146       .  S
Cd585       O587   2.054       .  S
O586        C596   1.268       .  A
O587       Cd588   1.978       .  S
Cd588       O590   2.038       .  S
O589        C596   1.286       .  A
C591        O595   1.270       .  A
C597        O598   1.286       .  A
O599        C615   1.271       .  A
O599       Zn605   1.984       .  S
C600        O616   1.268       .  A
C600        O613   1.272       .  A
O601        C614   1.282       .  A
O601       Cd608   2.139       .  S
O602        C620   1.271       .  A
O602       Cd611   2.055       .  S
O603        C617   1.274       .  A
O603       Cd607   2.065       .  S
O604        C615   1.273       .  A
O604       Cd607   2.096       .  S
Zn605       O616   1.992       .  S
Zn605       O618   1.932       .  S
Zn605       O610   1.890       .  S
O606        C617   1.272       .  A
O606       Cd611   2.061       .  S
Cd607       O609   2.030       .  S
Cd607       O610   1.985       .  S
Cd608       O612   2.133       .  S
Cd608       O621   2.149       .  S
Cd608       O610   2.040       .  S
O609        C619   1.273       .  A
O610       Cd611   1.966       .  S
Cd611       O613   2.054       .  S
O612        C619   1.284       .  A
C614        O618   1.265       .  A
C620        O621   1.286       .  A
O622        C638   1.271       .  A
O622       Zn628   1.984       .  S
C623        O639   1.268       .  A
C623        O636   1.271       .  A
O624        C637   1.282       .  A
O624       Cd631   2.139       .  S
O625        C643   1.272       .  A
O625       Cd634   2.056       .  S
O626        C640   1.274       .  A
O626       Cd630   2.064       .  S
O627        C638   1.273       .  A
O627       Cd630   2.095       .  S
Zn628       O639   1.992       .  S
Zn628       O641   1.932       .  S
Zn628       O633   1.889       .  S
O629        C640   1.272       .  A
O629       Cd634   2.059       .  S
Cd630       O632   2.030       .  S
Cd630       O633   1.986       .  S
Cd631       O635   2.132       .  S
Cd631       O644   2.149       .  S
Cd631       O633   2.041       .  S
O632        C642   1.273       .  A
O633       Cd634   1.967       .  S
Cd634       O636   2.054       .  S
O635        C642   1.284       .  A
C637        O641   1.265       .  A
C643        O644   1.286       .  A
O645        C661   1.271       .  A
O645       Zn651   1.998       .  S
C646        O662   1.272       .  A
C646        O659   1.267       .  A
O647        C660   1.284       .  A
O647       Cd654   2.145       .  S
O648        C666   1.265       .  A
O648       Cd657   1.990       .  S
O649        C663   1.273       .  A
O649       Cd653   2.106       .  S
O650        C661   1.273       .  A
O650       Cd653   2.054       .  S
Zn651       O662   2.006       .  S
Zn651       O664   2.002       .  S
Zn651       O656   1.923       .  S
O652        C663   1.269       .  A
O652       Cd657   2.035       .  S
Cd653       O655   2.029       .  S
Cd653       O656   1.986       .  S
Cd654       O658   2.130       .  S
Cd654       O667   2.144       .  S
Cd654       O656   2.043       .  S
O655        C665   1.273       .  A
O656       Cd657   1.948       .  S
Cd657       O659   2.026       .  S
O658        C665   1.283       .  A
C660        O664   1.271       .  A
C666        O667   1.283       .  A
O668        C684   1.272       .  A
O668       Zn674   2.047       .  S
C669        O685   1.274       .  A
C669        O682   1.271       .  A
O670        C683   1.284       .  A
O670       Cd677   2.142       .  S
O671        C689   1.272       .  A
O671       Cd680   2.046       .  S
O672        C686   1.271       .  A
O672       Cd676   2.053       .  S
O673        C684   1.274       .  A
O673       Cd676   2.048       .  S
Zn674       O685   1.990       .  S
Zn674       O687   1.939       .  S
Zn674       O679   1.908       .  S
O675        C686   1.272       .  A
O675       Cd680   2.043       .  S
Cd676       O678   2.054       .  S
Cd676       O679   1.960       .  S
Cd677       O681   2.154       .  S
Cd677       O690   2.150       .  S
Cd677       O679   2.040       .  S
O678        C688   1.270       .  A
O679       Cd680   1.990       .  S
Cd680       O682   2.088       .  S
O681        C688   1.286       .  A
C683        O687   1.268       .  A
C689        O690   1.285       .  A
O691        C707   1.271       .  A
O691       Zn697   1.998       .  S
C692        O708   1.272       .  A
C692        O705   1.267       .  A
O693        C706   1.285       .  A
O693       Cd700   2.145       .  S
O694        C712   1.265       .  A
O694       Cd703   1.989       .  S
O695        C709   1.273       .  A
O695       Cd699   2.104       .  S
O696        C707   1.273       .  A
O696       Cd699   2.055       .  S
Zn697       O708   2.007       .  S
Zn697       O710   2.002       .  S
Zn697       O702   1.922       .  S
O698        C709   1.269       .  A
O698       Cd703   2.036       .  S
Cd699       O701   2.029       .  S
Cd699       O702   1.985       .  S
Cd700       O704   2.130       .  S
Cd700       O713   2.143       .  S
Cd700       O702   2.043       .  S
O701        C711   1.273       .  A
O702       Cd703   1.948       .  S
Cd703       O705   2.026       .  S
O704        C711   1.283       .  A
C706        O710   1.271       .  A
C712        O713   1.283       .  A
O714        C730   1.274       .  A
O714       Zn720   2.001       .  S
C715        O731   1.272       .  A
C715        O728   1.273       .  A
O716        C729   1.285       .  A
O716       Cd723   2.154       .  S
O717        C735   1.268       .  A
O717       Cd726   2.002       .  S
O718        C732   1.273       .  A
O718       Cd722   2.042       .  S
O719        C730   1.270       .  A
O719       Cd722   2.042       .  S
Zn720       O731   2.046       .  S
Zn720       O733   1.982       .  S
Zn720       O725   1.942       .  S
O721        C732   1.270       .  A
O721       Cd726   2.090       .  S
Cd722       O724   2.035       .  S
Cd722       O725   1.965       .  S
Cd723       O727   2.159       .  S
Cd723       O736   2.148       .  S
Cd723       O725   2.054       .  S
O724        C734   1.268       .  A
O725       Cd726   1.978       .  S
Cd726       O728   2.038       .  S
O727        C734   1.286       .  A
C729        O733   1.270       .  A
C735        O736   1.286       .  A
O737        C753   1.274       .  A
O737       Zn743   2.003       .  S
C738        O754   1.272       .  A
C738        O751   1.273       .  A
C738       C1051   1.468       .  S
O739        C752   1.285       .  A
O739       Cd746   2.155       .  S
O740        C758   1.269       .  A
O740       Cd749   2.003       .  S
O741        C755   1.273       .  A
O741       Cd745   2.043       .  S
O742        C753   1.270       .  A
O742       Cd745   2.043       .  S
Zn743       O754   2.048       .  S
Zn743       O756   1.984       .  S
Zn743       O748   1.943       .  S
O744        C755   1.270       .  A
O744       Cd749   2.091       .  S
Cd745       O747   2.037       .  S
Cd745       O748   1.964       .  S
Cd746       O750   2.158       .  S
Cd746       O759   2.147       .  S
Cd746       O748   2.056       .  S
O747        C757   1.268       .  A
O748       Cd749   1.980       .  S
Cd749       O751   2.037       .  S
O750        C757   1.286       .  A
C752        O756   1.271       .  A
C752        C959   1.478       .  S
C753        C991   1.450       .  S
C755       C1034   1.469       .  S
C757        C988   1.477       .  S
C758        O759   1.286       .  A
C758        C922   1.471       .  S
O760        C776   1.271       .  A
O760      Zn2238   1.983       .  S
C761        O777   1.268       .  A
C761        O774   1.271       .  A
C761        C960   1.450       .  S
O762        C775   1.282       .  A
O762       Cd769   2.141       .  S
O763        C781   1.272       .  A
O763       Cd772   2.057       .  S
O764        C778   1.274       .  A
O764       Cd768   2.067       .  S
O765        C776   1.274       .  A
O765       Cd768   2.098       .  S
Zn766      O2232   1.983       .  S
Zn766       O777   1.992       .  S
Zn766       O779   1.932       .  S
Zn766       O771   1.890       .  S
O767        C778   1.272       .  A
O767      Cd2244   2.061   1_455  S
Cd768       O770   2.032       .  S
Cd768      O2243   1.985       .  S
Cd769      O2245   2.135       .  S
Cd769       O782   2.149       .  S
Cd769       O771   2.042       .  S
O770        C780   1.273       .  A
O771      Cd2240   1.986       .  S
O771       Cd772   1.968       .  S
Cd772      O2239   2.061       .  S
Cd772       O774   2.054       .  S
O773        C780   1.284       .  A
O773      Cd2241   2.135   1_455  S
C775        O779   1.265       .  A
C775       C1052   1.469       .  S
C776       C1079   1.472       .  S
C778        C985   1.459       .  S
C780       C1031   1.472       .  S
C781        O782   1.286       .  A
C781       C1102   1.477       .  S
O783        C799   1.274       .  A
O783       Zn789   2.004       .  S
C784        O800   1.272       .  A
C784        O797   1.272       .  A
C784        C936   1.468       .  S
O785        C798   1.285       .  A
O785       Cd792   2.153       .  S
O786        C804   1.268       .  A
O786       Cd795   2.001       .  S
O787        C801   1.273       .  A
O787      Cd1159   2.044       .  S
O788        C799   1.270       .  A
O788       Cd791   2.043       .  S
Zn789      O1168   2.048       .  S
Zn789       O802   1.984       .  S
Zn789      O1162   1.943       .  S
O790        C801   1.270       .  A
O790       Cd795   2.088       .  S
Cd791      O1155   2.044       .  S
Cd791       O793   2.039       .  S
Cd791      O1162   1.964       .  S
Cd792       O796   2.157       .  S
Cd792      O1173   2.147       .  S
Cd792      O1162   2.055       .  S
O793        C803   1.268       .  A
O794      Zn1157   1.943   1_554  S
O794      Cd1159   1.963       .  S
O794      Cd1160   2.055   1_554  S
O794       Cd795   1.979       .  S
Cd795       O797   2.036       .  S
O796        C803   1.286       .  A
C798        O802   1.271       .  A
C798       C1097   1.477       .  S
C799        C968   1.450       .  S
O800      Zn1157   2.048   1_554  S
C801       C1080   1.469       .  S
C803       C1011   1.477       .  S
C804        O805   1.285       .  A
C804       C1037   1.471       .  S
O805      Cd1160   2.147   1_554  S
O806        C822   1.272       .  A
O806       Zn812   2.046       .  S
C807        O823   1.274       .  A
C807        O820   1.271       .  A
C807       C1103   1.471       .  S
O808        C821   1.284       .  A
O808       Cd815   2.143       .  S
O809        C827   1.272       .  A
O809       Cd818   2.047       .  S
O810        C824   1.271       .  A
O811        C822   1.274       .  A
O811       Cd814   2.047       .  S
Zn812       O825   1.941       .  S
Zn812       O817   1.909       .  S
O813        C824   1.272       .  A
O813       Cd818   2.045       .  S
Cd814       O816   2.054       .  S
Cd814       O817   1.960       .  S
Cd815       O819   2.153       .  S
Cd815       O828   2.149       .  S
Cd815       O817   2.041       .  S
O816        C826   1.270       .  A
Cd818       O820   2.088       .  S
O819        C826   1.286       .  A
C821        O825   1.268       .  A
C821        C945   1.468       .  S
C822       C1005   1.468       .  S
C824       C1014   1.446       .  S
C826       C1074   1.478       .  S
C827        C942   1.477       .  S
O829        C845   1.271       .  A
O829      Zn2307   1.983       .  S
C830        O846   1.268       .  A
C830        O843   1.271       .  A
C830       C1098   1.449       .  S
O831        C844   1.282       .  A
O831       Cd838   2.141       .  S
O832        C850   1.272       .  A
O832       Cd841   2.057       .  S
O833        C847   1.274       .  A
O833      Cd1205   2.066       .  S
O834        C845   1.273       .  A
O834       Cd837   2.097       .  S
Zn835      O2301   1.983       .  S
Zn835      O1214   1.991   1_554  S
Zn835       O848   1.933       .  S
Zn835      O2312   1.890       .  S
O836        C847   1.272       .  A
O836      Cd2313   2.058   1_455  S
Cd837      O1201   2.065   1_554  S
Cd837       O839   2.032       .  S
Cd837       O840   1.985       .  S
Cd838      O2314   2.133       .  S
Cd838       O851   2.149   1_554  S
Cd838      O2312   2.040       .  S
O839        C849   1.273       .  A
O840      Zn2307   1.889       .  S
O840      Cd2310   2.040   1_455  S
O840      Cd2681   1.967   1_454  S
Cd841      O2308   2.058       .  S
Cd841       O843   2.053       .  S
Cd841      O2680   1.967       .  S
O842        C849   1.284       .  A
O842      Cd2310   2.134   1_455  S
C844        O848   1.265       .  A
C844        C937   1.469       .  S
C845       C1033   1.471       .  S
O846      Zn1203   1.991       .  S
C847       C1008   1.458       .  S
C849       C1077   1.472       .  S
C850       O1219   1.286       .  A
C850        C964   1.477       .  S
O851       C1218   1.286       .  A
O852        C868   1.271       .  A
O852      Zn2330   1.998   1_455  S
C853        O869   1.272       .  A
C853        O866   1.267       .  A
C853        C939   1.446       .  S
O854        C867   1.284       .  A
O854       Cd861   2.147       .  S
O855        C873   1.265       .  A
O855       Cd864   1.991       .  S
O856        C870   1.273       .  A
O857        C868   1.273       .  A
O857       Cd860   2.054       .  S
Zn858      O2324   1.997       .  S
Zn858       O871   2.001       .  S
Zn858      O2335   1.923       .  S
O859        C870   1.269       .  A
O859      Cd2336   2.036       .  S
Cd860       O862   2.026       .  S
Cd860       O863   1.986       .  S
Cd861      O2337   2.131       .  S
Cd861      O2335   2.045       .  S
O862        C872   1.273       .  A
O863      Zn2330   1.923   1_455  S
O863      Cd2333   2.045   1_455  S
O863      Cd1600   1.949       .  S
Cd864      O2331   2.036       .  S
Cd864       O866   2.026       .  S
Cd864      O1599   1.949   1_565  S
O865        C872   1.283       .  A
O865      Cd2333   2.131   1_455  S
C867        O871   1.271       .  A
C867       C1056   1.478       .  S
C868       C1075   1.452       .  S
C870        C987   1.471       .  S
C872       C1006   1.471       .  S
C873        O874   1.283   1_565  A
C873       C1100   1.469       .  S
O875        C891   1.272       .  A
O875       Zn881   2.044   1_565  S
C876        O892   1.274       .  A
C876        O889   1.271       .  A
C876        C965   1.471       .  S
O877       C1258   1.284   1_554  A
O877       Cd884   2.143       .  S
O878        C896   1.272       .  A
O878       Cd887   2.046       .  S
O879        C893   1.271       .  A
O880        C891   1.274       .  A
O880      Cd1251   2.047       .  S
Zn881       O894   1.939   1_545  S
O882        C893   1.272       .  A
O882       Cd887   2.044       .  S
Cd883      O1248   2.047   1_554  S
Cd883       O885   2.054       .  S
Cd884       O888   2.153       .  S
O885        C895   1.270       .  A
O886       Cd887   1.989   1_556  S
Cd887      O1257   2.088   1_554  S
O888        C895   1.286       .  A
O889      Cd1255   2.088       .  S
C890       O1245   1.284       .  A
C890        O894   1.267       .  A
C890       C1083   1.468       .  S
C891        C982   1.468       .  S
C893       C1060   1.446       .  S
C895       C1028   1.478       .  S
C896        O897   1.285       .  A
C896       C1057   1.476       .  S
O898        C914   1.271       .  A
O898      Zn2376   1.996   1_465  S
C899        O915   1.272       .  A
C899        O912   1.267       .  A
C899       C1054   1.445       .  S
O900        C913   1.285       .  A
O900      Cd1275   2.147   1_554  S
O901        C919   1.265       .  A
O901       Cd910   1.991       .  S
O902        C916   1.273       .  A
O903        C914   1.273       .  A
O903       Cd906   2.054       .  S
Zn904      O2370   1.996   1_545  S
Zn904       O917   2.000   1_545  S
Zn904      O1645   1.922       .  S
O905        C916   1.269       .  A
O905      Cd2382   2.036       .  S
Cd906      O1276   2.026   1_554  S
Cd907      O1268   2.147       .  S
Cd907      O2383   2.131       .  S
Cd907      O2013   2.044   1_565  S
O908        C918   1.273       .  A
O908      Cd1274   2.026       .  S
O909      Zn1640   1.922   1_455  S
O909      Cd2011   2.045   1_454  S
O909      Cd2750   1.949   1_554  S
Cd910      O2377   2.036       .  S
Cd910      O1280   2.026       .  S
Cd910      O2749   1.949       .  S
O911        C918   1.283       .  A
O911      Cd2379   2.130   1_455  S
O912      Cd1278   2.026   1_554  S
C913        O917   1.271       .  A
C913        C941   1.479       .  S
C914       C1029   1.452       .  S
C916       C1010   1.471       .  S
C918        C983   1.471       .  S
C919        O920   1.283       .  A
C919        C962   1.469       .  S
O921        C937   1.272       .  A
O921       Zn927   2.048       .  S
C922        O938   1.274       .  A
C922        O935   1.271       .  A
O923        C936   1.284       .  A
O923       Cd930   2.142       .  S
O924        C942   1.272       .  A
O924       Cd933   2.047       .  S
O925        C939   1.271       .  A
O925       Cd929   2.053       .  S
O926        C937   1.274       .  A
O926       Cd929   2.048       .  S
Zn927       O938   1.991       .  S
Zn927       O940   1.939       .  S
Zn927       O932   1.908       .  S
O928        C939   1.272       .  A
O928       Cd933   2.043       .  S
Cd929       O931   2.056       .  S
Cd929       O932   1.960       .  S
Cd930       O934   2.154       .  S
Cd930       O943   2.150       .  S
Cd930       O932   2.040       .  S
O931        C941   1.270       .  A
O932       Cd933   1.990       .  S
Cd933       O935   2.088       .  S
O934        C941   1.286       .  A
C936        O940   1.268       .  A
C942        O943   1.285       .  A
O944        C960   1.274       .  A
O944       Zn950   2.003       .  S
C945        O961   1.272       .  A
C945        O958   1.273       .  A
O946        C959   1.285       .  A
O946       Cd953   2.155       .  S
O947        C965   1.268       .  A
O947       Cd956   2.003       .  S
O948        C962   1.273       .  A
O948       Cd952   2.042       .  S
O949        C960   1.270       .  A
O949       Cd952   2.042       .  S
Zn950       O961   2.047       .  S
Zn950       O963   1.983       .  S
Zn950       O955   1.941       .  S
O951        C962   1.270       .  A
O951       Cd956   2.090       .  S
Cd952       O954   2.036       .  S
Cd952       O955   1.965       .  S
Cd953       O957   2.157       .  S
Cd953       O966   2.146       .  S
Cd953       O955   2.054       .  S
O954        C964   1.268       .  A
O955       Cd956   1.978       .  S
Cd956       O958   2.038       .  S
O957        C964   1.286       .  A
C959        O963   1.270       .  A
C965        O966   1.286       .  A
O967        C983   1.271       .  A
O967       Zn973   1.984       .  S
C968        O984   1.268       .  A
C968        O981   1.272       .  A
O969        C982   1.282       .  A
O969       Cd976   2.139       .  S
O970        C988   1.272       .  A
O970       Cd979   2.055       .  S
O971        C985   1.274       .  A
O971       Cd975   2.065       .  S
O972        C983   1.273       .  A
O972       Cd975   2.095       .  S
Zn973       O984   1.993       .  S
Zn973       O986   1.932       .  S
Zn973       O978   1.890       .  S
O974        C985   1.272       .  A
O974       Cd979   2.060       .  S
Cd975       O977   2.030       .  S
Cd975       O978   1.985       .  S
Cd976       O980   2.133       .  S
Cd976       O989   2.150       .  S
Cd976       O978   2.041       .  S
O977        C987   1.273       .  A
O978       Cd979   1.967       .  S
Cd979       O981   2.054       .  S
O980        C987   1.284       .  A
C982        O986   1.265       .  A
C988        O989   1.286       .  A
O990       C1006   1.271       .  A
O990       Zn996   1.984       .  S
C991       O1007   1.268       .  A
C991       O1004   1.271       .  A
O992       C1005   1.282       .  A
O992       Cd999   2.139       .  S
O993       C1011   1.272       .  A
O993      Cd1002   2.056       .  S
O994       C1008   1.274       .  A
O994       Cd998   2.064       .  S
O995       C1006   1.273       .  A
O995       Cd998   2.095       .  S
Zn996      O1007   1.992       .  S
Zn996      O1009   1.932       .  S
Zn996      O1001   1.889       .  S
O997       C1008   1.272       .  A
O997      Cd1002   2.059       .  S
Cd998      O1000   2.030       .  S
Cd998      O1001   1.986       .  S
Cd999      O1003   2.132       .  S
Cd999      O1012   2.149       .  S
Cd999      O1001   2.041       .  S
O1000      C1010   1.273       .  A
O1001     Cd1002   1.967       .  S
Cd1002     O1004   2.054       .  S
O1003      C1010   1.284       .  A
C1005      O1009   1.265       .  A
C1011      O1012   1.286       .  A
O1013      C1029   1.271       .  A
O1013     Zn1019   1.998       .  S
C1014      O1030   1.272       .  A
C1014      O1027   1.267       .  A
O1015      C1028   1.284       .  A
O1015     Cd1022   2.145       .  S
O1016      C1034   1.265       .  A
O1016     Cd1025   1.990       .  S
O1017      C1031   1.273       .  A
O1017     Cd1021   2.106       .  S
O1018      C1029   1.273       .  A
O1018     Cd1021   2.054       .  S
Zn1019     O1030   2.006       .  S
Zn1019     O1032   2.001       .  S
Zn1019     O1024   1.923       .  S
O1020      C1031   1.269       .  A
O1020     Cd1025   2.035       .  S
Cd1021     O1023   2.029       .  S
Cd1021     O1024   1.986       .  S
Cd1022     O1026   2.130       .  S
Cd1022     O1035   2.144       .  S
Cd1022     O1024   2.043       .  S
O1023      C1033   1.273       .  A
O1024     Cd1025   1.948       .  S
Cd1025     O1027   2.027       .  S
O1026      C1033   1.283       .  A
C1028      O1032   1.271       .  A
C1034      O1035   1.283       .  A
O1036      C1052   1.272       .  A
O1036     Zn1042   2.047       .  S
C1037      O1053   1.274       .  A
C1037      O1050   1.271       .  A
O1038      C1051   1.284       .  A
O1038     Cd1045   2.142       .  S
O1039      C1057   1.272       .  A
O1039     Cd1048   2.046       .  S
O1040      C1054   1.271       .  A
O1040     Cd1044   2.052       .  S
O1041      C1052   1.274       .  A
O1041     Cd1044   2.047       .  S
Zn1042     O1053   1.990       .  S
Zn1042     O1055   1.939       .  S
Zn1042     O1047   1.908       .  S
O1043      C1054   1.272       .  A
O1043     Cd1048   2.043       .  S
Cd1044     O1046   2.054       .  S
Cd1044     O1047   1.960       .  S
Cd1045     O1049   2.154       .  S
Cd1045     O1058   2.149       .  S
Cd1045     O1047   2.040       .  S
O1046      C1056   1.270       .  A
O1047     Cd1048   1.990       .  S
Cd1048     O1050   2.088       .  S
O1049      C1056   1.286       .  A
C1051      O1055   1.268       .  A
C1057      O1058   1.285       .  A
O1059      C1075   1.271       .  A
O1059     Zn1065   1.999       .  S
C1060      O1076   1.272       .  A
C1060      O1073   1.267       .  A
O1061      C1074   1.285       .  A
O1061     Cd1068   2.146       .  S
O1062      C1080   1.265       .  A
O1062     Cd1071   1.989       .  S
O1063      C1077   1.273       .  A
O1063     Cd1067   2.104       .  S
O1064      C1075   1.273       .  A
O1064     Cd1067   2.055       .  S
Zn1065     O1076   2.007       .  S
Zn1065     O1078   2.002       .  S
Zn1065     O1070   1.922       .  S
O1066      C1077   1.269       .  A
O1066     Cd1071   2.036       .  S
Cd1067     O1069   2.029       .  S
Cd1067     O1070   1.985       .  S
Cd1068     O1072   2.131       .  S
Cd1068     O1081   2.143       .  S
Cd1068     O1070   2.043       .  S
O1069      C1079   1.273       .  A
O1070     Cd1071   1.948       .  S
Cd1071     O1073   2.026       .  S
O1072      C1079   1.283       .  A
C1074      O1078   1.271       .  A
C1080      O1081   1.283       .  A
O1082      C1098   1.274       .  A
O1082     Zn1088   2.001       .  S
C1083      O1099   1.272       .  A
C1083      O1096   1.273       .  A
O1084      C1097   1.285       .  A
O1084     Cd1091   2.154       .  S
O1085      C1103   1.268       .  A
O1085     Cd1094   2.002       .  S
O1086      C1100   1.273       .  A
O1086     Cd1090   2.042       .  S
O1087      C1098   1.270       .  A
O1087     Cd1090   2.042       .  S
Zn1088     O1099   2.046       .  S
Zn1088     O1101   1.982       .  S
Zn1088     O1093   1.942       .  S
O1089      C1100   1.270       .  A
O1089     Cd1094   2.090       .  S
Cd1090     O1092   2.034       .  S
Cd1090     O1093   1.965       .  S
Cd1091     O1095   2.160       .  S
Cd1091     O1104   2.148       .  S
Cd1091     O1093   2.054       .  S
O1092      C1102   1.268       .  A
O1093     Cd1094   1.978       .  S
Cd1094     O1096   2.038       .  S
O1095      C1102   1.286       .  A
C1097      O1101   1.270       .  A
C1103      O1104   1.286       .  A
O1105      C1121   1.274       .  A
O1105     Zn1111   2.003       .  S
C1106      O1122   1.272       .  A
C1106      O1119   1.273       .  A
C1106      C1419   1.468       .  S
O1107      C1120   1.285       .  A
O1107     Cd1114   2.155       .  S
O1108      C1126   1.268       .  A
O1108     Cd1117   2.003       .  S
O1109      C1123   1.273       .  A
O1109     Cd1113   2.043       .  S
O1110      C1121   1.270       .  A
O1110     Cd1113   2.043       .  S
Zn1111     O1122   2.048       .  S
Zn1111     O1124   1.984       .  S
Zn1111     O1116   1.943       .  S
O1112      C1123   1.270       .  A
O1112     Cd1117   2.091       .  S
Cd1113     O1115   2.037       .  S
Cd1113     O1116   1.964       .  S
Cd1114     O1118   2.158       .  S
Cd1114     O1127   2.147       .  S
Cd1114     O1116   2.055       .  S
O1115      C1125   1.268       .  A
O1116     Cd1117   1.979       .  S
Cd1117     O1119   2.037       .  S
O1118      C1125   1.286       .  A
C1120      O1124   1.271       .  A
C1120      C1327   1.478       .  S
C1121      C1359   1.450       .  S
C1123      C1402   1.469       .  S
C1125      C1356   1.477       .  S
C1126      O1127   1.286       .  A
C1126      C1290   1.471       .  S
O1128      C1144   1.271       .  A
O1128     Zn2606   1.983       .  S
C1129      O1145   1.268       .  A
C1129      O1142   1.271       .  A
C1129      C1328   1.450       .  S
O1130      C1143   1.282       .  A
O1130     Cd1137   2.141       .  S
O1131      C1149   1.272       .  A
O1131     Cd1140   2.057       .  S
O1132      C1146   1.274       .  A
O1132     Cd1136   2.067       .  S
O1133      C1144   1.274       .  A
O1133     Cd1136   2.098       .  S
Zn1134     O2600   1.983       .  S
Zn1134     O1145   1.992       .  S
Zn1134     O1147   1.932       .  S
Zn1134     O1139   1.890       .  S
O1135      C1146   1.272       .  A
O1135     Cd2612   2.061   1_455  S
Cd1136     O1138   2.032       .  S
Cd1136     O2611   1.985       .  S
Cd1137     O2613   2.135       .  S
Cd1137     O1150   2.149       .  S
Cd1137     O1139   2.042       .  S
O1138      C1148   1.273       .  A
O1139     Cd2608   1.985       .  S
O1139     Cd1140   1.968       .  S
Cd1140     O2607   2.061       .  S
Cd1140     O1142   2.054       .  S
O1141      C1148   1.284       .  A
O1141     Cd2609   2.135   1_455  S
C1143      O1147   1.265       .  A
C1143      C1420   1.469       .  S
C1144      C1447   1.472       .  S
C1146      C1353   1.459       .  S
C1148      C1399   1.472       .  S
C1149      O1150   1.286       .  A
C1149      C1470   1.477       .  S
O1151      C1167   1.274       .  A
O1151     Zn1157   2.004       .  S
C1152      O1168   1.272       .  A
C1152      O1165   1.272       .  A
C1152      C1304   1.468       .  S
O1153      C1166   1.285       .  A
O1153     Cd1160   2.153       .  S
O1154      C1172   1.268       .  A
O1154     Cd1163   2.001       .  S
O1155      C1169   1.274       .  A
O1156      C1167   1.270       .  A
O1156     Cd1159   2.043   1_556  S
Zn1157     O1170   1.984       .  S
O1158      C1169   1.270       .  A
O1158     Cd1163   2.088       .  S
Cd1159     O1161   2.039   1_554  S
Cd1160     O1164   2.157       .  S
O1161      C1171   1.268       .  A
O1162     Cd1163   1.979       .  S
Cd1163     O1165   2.036       .  S
O1164      C1171   1.285       .  A
C1166      O1170   1.271       .  A
C1166      C1465   1.477       .  S
C1167      C1336   1.450       .  S
C1169      C1448   1.469       .  S
C1171      C1379   1.477       .  S
C1172      O1173   1.285       .  A
C1172      C1405   1.471       .  S
O1174      C1190   1.272       .  A
O1174     Zn1180   2.046       .  S
C1175      O1191   1.274       .  A
C1175      O1188   1.271       .  A
C1175      C1471   1.471       .  S
O1176      C1189   1.284       .  A
O1176     Cd1183   2.143       .  S
O1177      C1195   1.272       .  A
O1177     Cd1186   2.047       .  S
O1178      C1192   1.271       .  A
O1179      C1190   1.274       .  A
O1179     Cd1182   2.047       .  S
Zn1180     O1193   1.941       .  S
Zn1180     O1185   1.909       .  S
O1181      C1192   1.272       .  A
O1181     Cd1186   2.045       .  S
Cd1182     O1184   2.053       .  S
Cd1182     O1185   1.960       .  S
Cd1183     O1187   2.154       .  S
Cd1183     O1196   2.149       .  S
Cd1183     O1185   2.041       .  S
O1184      C1194   1.270       .  A
Cd1186     O1188   2.088       .  S
O1187      C1194   1.286       .  A
C1189      O1193   1.268       .  A
C1189      C1313   1.468       .  S
C1190      C1373   1.468       .  S
C1192      C1382   1.446       .  S
C1194      C1442   1.478       .  S
C1195      C1310   1.477       .  S
O1197      C1213   1.271       .  A
O1197     Zn2675   1.983       .  S
C1198      O1214   1.268       .  A
C1198      O1211   1.271       .  A
C1198      C1466   1.449       .  S
O1199      C1212   1.282       .  A
O1199     Cd1206   2.141       .  S
O1200      C1218   1.272       .  A
O1200     Cd1209   2.057       .  S
O1201      C1215   1.274       .  A
O1202      C1213   1.273       .  A
O1202     Cd1205   2.097       .  S
Zn1203     O2669   1.983       .  S
Zn1203     O1216   1.933       .  S
Zn1203     O2680   1.889       .  S
O1204      C1215   1.272       .  A
O1204     Cd2681   2.058   1_455  S
Cd1205     O1207   2.032       .  S
Cd1205     O1208   1.985       .  S
Cd1206     O2682   2.134       .  S
Cd1206     O1219   2.149       .  S
Cd1206     O2680   2.040       .  S
O1207      C1217   1.273       .  A
O1208     Zn2675   1.890       .  S
O1208     Cd2678   2.040   1_455  S
O1208     Cd2313   1.967   1_455  S
Cd1209     O2676   2.058       .  S
Cd1209     O1211   2.053       .  S
Cd1209     O2312   1.967   1_556  S
O1210      C1217   1.284       .  A
O1210     Cd2678   2.134   1_455  S
C1212      O1216   1.265       .  A
C1212      C1305   1.469       .  S
C1213      C1401   1.471       .  S
C1215      C1376   1.458       .  S
C1217      C1445   1.472       .  S
C1218      C1332   1.477       .  S
O1220      C1236   1.271       .  A
O1220     Zn2698   1.997   1_455  S
C1221      O1237   1.272       .  A
C1221      O1234   1.267       .  A
C1221      C1307   1.446       .  S
O1222      C1235   1.285       .  A
O1222     Cd1229   2.147       .  S
O1223      C1241   1.265       .  A
O1223     Cd1232   1.992       .  S
O1224      C1238   1.273       .  A
O1225      C1236   1.273       .  A
O1225     Cd1228   2.054       .  S
Zn1226     O2692   1.997       .  S
Zn1226     O1239   2.001       .  S
Zn1226     O2703   1.923       .  S
O1227      C1238   1.269       .  A
O1227     Cd2704   2.035       .  S
Cd1228     O1230   2.026       .  S
Cd1228     O1231   1.986       .  S
Cd1229     O2705   2.131       .  S
Cd1229     O2703   2.045       .  S
O1230      C1240   1.273       .  A
O1231     Zn2698   1.923   1_455  S
O1231     Cd2701   2.045   1_455  S
O1231     Cd1968   1.949       .  S
Cd1232     O2699   2.036       .  S
Cd1232     O1234   2.026       .  S
Cd1232     O1967   1.949   1_565  S
O1233      C1240   1.283       .  A
O1233     Cd2701   2.131   1_455  S
C1235      O1239   1.271       .  A
C1235      C1424   1.479       .  S
C1236      C1443   1.452       .  S
C1238      C1355   1.471       .  S
C1240      C1374   1.471       .  S
C1241      O1242   1.283   1_565  A
C1241      C1468   1.469       .  S
O1243      C1259   1.272       .  A
O1243     Zn1249   2.044   1_565  S
C1244      O1260   1.274       .  A
C1244      O1257   1.271       .  A
C1244      C1333   1.471       .  S
O1245     Cd1252   2.143       .  S
O1246      C1264   1.272       .  A
O1246     Cd1255   2.047       .  S
O1247      C1261   1.271       .  A
O1248      C1259   1.274       .  A
Zn1249     O1262   1.939   1_545  S
O1250      C1261   1.272       .  A
O1250     Cd1255   2.045       .  S
Cd1251     O1253   2.054       .  S
Cd1252     O1256   2.153       .  S
O1253      C1263   1.270       .  A
O1254     Cd1255   1.989       .  S
O1256      C1263   1.286       .  A
C1258      O1262   1.267       .  A
C1258      C1451   1.468       .  S
C1259      C1350   1.468       .  S
C1261      C1428   1.446       .  S
C1263      C1396   1.478       .  S
C1264      O1265   1.285       .  A
C1264      C1425   1.476       .  S
O1266      C1282   1.271       .  A
O1266     Zn2744   1.996   1_465  S
C1267      O1283   1.272       .  A
C1267      O1280   1.267       .  A
C1267      C1422   1.446       .  S
O1268      C1281   1.285       .  A
O1269      C1287   1.265       .  A
O1269     Cd1278   1.991       .  S
O1270      C1284   1.273       .  A
O1271      C1282   1.273       .  A
O1271     Cd1274   2.054       .  S
Zn1272     O2738   1.996   1_545  S
Zn1272     O1285   2.001   1_545  S
Zn1272     O2013   1.922       .  S
O1273      C1284   1.269       .  A
O1273     Cd2750   2.036       .  S
Cd1275     O2751   2.130       .  S
Cd1275     O1645   2.044   1_566  S
O1276      C1286   1.273       .  A
O1277     Zn2008   1.922   1_455  S
O1277     Cd1643   2.044   1_455  S
O1277     Cd2382   1.949       .  S
Cd1278     O2745   2.035       .  S
Cd1278     O2381   1.949   1_556  S
O1279      C1286   1.283       .  A
O1279     Cd2747   2.131   1_455  S
C1281      O1285   1.271       .  A
C1281      C1309   1.479       .  S
C1282      C1397   1.452       .  S
C1284      C1378   1.471       .  S
C1286      C1351   1.471       .  S
C1287      O1288   1.283       .  A
C1287      C1330   1.468       .  S
O1289      C1305   1.272       .  A
O1289     Zn1295   2.048       .  S
C1290      O1306   1.274       .  A
C1290      O1303   1.271       .  A
O1291      C1304   1.284       .  A
O1291     Cd1298   2.142       .  S
O1292      C1310   1.272       .  A
O1292     Cd1301   2.047       .  S
O1293      C1307   1.271       .  A
O1293     Cd1297   2.053       .  S
O1294      C1305   1.274       .  A
O1294     Cd1297   2.048       .  S
Zn1295     O1306   1.991       .  S
Zn1295     O1308   1.940       .  S
Zn1295     O1300   1.908       .  S
O1296      C1307   1.272       .  A
O1296     Cd1301   2.043       .  S
Cd1297     O1299   2.056       .  S
Cd1297     O1300   1.960       .  S
Cd1298     O1302   2.154       .  S
Cd1298     O1311   2.150       .  S
Cd1298     O1300   2.040       .  S
O1299      C1309   1.270       .  A
O1300     Cd1301   1.990       .  S
Cd1301     O1303   2.088       .  S
O1302      C1309   1.286       .  A
C1304      O1308   1.268       .  A
C1310      O1311   1.285       .  A
O1312      C1328   1.274       .  A
O1312     Zn1318   2.003       .  S
C1313      O1329   1.272       .  A
C1313      O1326   1.273       .  A
O1314      C1327   1.285       .  A
O1314     Cd1321   2.155       .  S
O1315      C1333   1.268       .  A
O1315     Cd1324   2.003       .  S
O1316      C1330   1.273       .  A
O1316     Cd1320   2.042       .  S
O1317      C1328   1.270       .  A
O1317     Cd1320   2.042       .  S
Zn1318     O1329   2.047       .  S
Zn1318     O1331   1.983       .  S
Zn1318     O1323   1.941       .  S
O1319      C1330   1.270       .  A
O1319     Cd1324   2.089       .  S
Cd1320     O1322   2.036       .  S
Cd1320     O1323   1.965       .  S
Cd1321     O1325   2.157       .  S
Cd1321     O1334   2.146       .  S
Cd1321     O1323   2.054       .  S
O1322      C1332   1.268       .  A
O1323     Cd1324   1.978       .  S
Cd1324     O1326   2.038       .  S
O1325      C1332   1.286       .  A
C1327      O1331   1.270       .  A
C1333      O1334   1.286       .  A
O1335      C1351   1.271       .  A
O1335     Zn1341   1.984       .  S
C1336      O1352   1.268       .  A
C1336      O1349   1.272       .  A
O1337      C1350   1.282       .  A
O1337     Cd1344   2.139       .  S
O1338      C1356   1.271       .  A
O1338     Cd1347   2.055       .  S
O1339      C1353   1.274       .  A
O1339     Cd1343   2.065       .  S
O1340      C1351   1.273       .  A
O1340     Cd1343   2.095       .  S
Zn1341     O1352   1.992       .  S
Zn1341     O1354   1.932       .  S
Zn1341     O1346   1.890       .  S
O1342      C1353   1.272       .  A
O1342     Cd1347   2.061       .  S
Cd1343     O1345   2.030       .  S
Cd1343     O1346   1.985       .  S
Cd1344     O1348   2.133       .  S
Cd1344     O1357   2.149       .  S
Cd1344     O1346   2.041       .  S
O1345      C1355   1.273       .  A
O1346     Cd1347   1.966       .  S
Cd1347     O1349   2.054       .  S
O1348      C1355   1.284       .  A
C1350      O1354   1.265       .  A
C1356      O1357   1.286       .  A
O1358      C1374   1.271       .  A
O1358     Zn1364   1.984       .  S
C1359      O1375   1.268       .  A
C1359      O1372   1.271       .  A
O1360      C1373   1.282       .  A
O1360     Cd1367   2.140       .  S
O1361      C1379   1.272       .  A
O1361     Cd1370   2.056       .  S
O1362      C1376   1.274       .  A
O1362     Cd1366   2.064       .  S
O1363      C1374   1.273       .  A
O1363     Cd1366   2.095       .  S
Zn1364     O1375   1.992       .  S
Zn1364     O1377   1.932       .  S
Zn1364     O1369   1.889       .  S
O1365      C1376   1.272       .  A
O1365     Cd1370   2.059       .  S
Cd1366     O1368   2.030       .  S
Cd1366     O1369   1.986       .  S
Cd1367     O1371   2.132       .  S
Cd1367     O1380   2.149       .  S
Cd1367     O1369   2.041       .  S
O1368      C1378   1.273       .  A
O1369     Cd1370   1.967       .  S
Cd1370     O1372   2.054       .  S
O1371      C1378   1.284       .  A
C1373      O1377   1.265       .  A
C1379      O1380   1.286       .  A
O1381      C1397   1.271       .  A
O1381     Zn1387   1.998       .  S
C1382      O1398   1.272       .  A
C1382      O1395   1.267       .  A
O1383      C1396   1.284       .  A
O1383     Cd1390   2.145       .  S
O1384      C1402   1.265       .  A
O1384     Cd1393   1.990       .  S
O1385      C1399   1.273       .  A
O1385     Cd1389   2.106       .  S
O1386      C1397   1.273       .  A
O1386     Cd1389   2.054       .  S
Zn1387     O1398   2.006       .  S
Zn1387     O1400   2.001       .  S
Zn1387     O1392   1.923       .  S
O1388      C1399   1.269       .  A
O1388     Cd1393   2.035       .  S
Cd1389     O1391   2.029       .  S
Cd1389     O1392   1.985       .  S
Cd1390     O1394   2.130       .  S
Cd1390     O1403   2.144       .  S
Cd1390     O1392   2.043       .  S
O1391      C1401   1.273       .  A
O1392     Cd1393   1.948       .  S
Cd1393     O1395   2.026       .  S
O1394      C1401   1.283       .  A
C1396      O1400   1.271       .  A
C1402      O1403   1.283       .  A
O1404      C1420   1.272       .  A
O1404     Zn1410   2.047       .  S
C1405      O1421   1.274       .  A
C1405      O1418   1.271       .  A
O1406      C1419   1.284       .  A
O1406     Cd1413   2.142       .  S
O1407      C1425   1.272       .  A
O1407     Cd1416   2.046       .  S
O1408      C1422   1.271       .  A
O1408     Cd1412   2.052       .  S
O1409      C1420   1.274       .  A
O1409     Cd1412   2.048       .  S
Zn1410     O1421   1.990       .  S
Zn1410     O1423   1.939       .  S
Zn1410     O1415   1.908       .  S
O1411      C1422   1.272       .  A
O1411     Cd1416   2.043       .  S
Cd1412     O1414   2.054       .  S
Cd1412     O1415   1.960       .  S
Cd1413     O1417   2.154       .  S
Cd1413     O1426   2.149       .  S
Cd1413     O1415   2.040       .  S
O1414      C1424   1.270       .  A
O1415     Cd1416   1.990       .  S
Cd1416     O1418   2.088       .  S
O1417      C1424   1.286       .  A
C1419      O1423   1.268       .  A
C1425      O1426   1.285       .  A
O1427      C1443   1.271       .  A
O1427     Zn1433   1.999       .  S
C1428      O1444   1.272       .  A
C1428      O1441   1.267       .  A
O1429      C1442   1.285       .  A
O1429     Cd1436   2.146       .  S
O1430      C1448   1.265       .  A
O1430     Cd1439   1.989       .  S
O1431      C1445   1.273       .  A
O1431     Cd1435   2.104       .  S
O1432      C1443   1.273       .  A
O1432     Cd1435   2.055       .  S
Zn1433     O1444   2.007       .  S
Zn1433     O1446   2.002       .  S
Zn1433     O1438   1.923       .  S
O1434      C1445   1.269       .  A
O1434     Cd1439   2.036       .  S
Cd1435     O1437   2.029       .  S
Cd1435     O1438   1.985       .  S
Cd1436     O1440   2.130       .  S
Cd1436     O1449   2.143       .  S
Cd1436     O1438   2.043       .  S
O1437      C1447   1.273       .  A
O1438     Cd1439   1.948       .  S
Cd1439     O1441   2.026       .  S
O1440      C1447   1.283       .  A
C1442      O1446   1.271       .  A
C1448      O1449   1.283       .  A
O1450      C1466   1.274       .  A
O1450     Zn1456   2.001       .  S
C1451      O1467   1.272       .  A
C1451      O1464   1.273       .  A
O1452      C1465   1.285       .  A
O1452     Cd1459   2.154       .  S
O1453      C1471   1.268       .  A
O1453     Cd1462   2.003       .  S
O1454      C1468   1.273       .  A
O1454     Cd1458   2.042       .  S
O1455      C1466   1.270       .  A
O1455     Cd1458   2.042       .  S
Zn1456     O1467   2.046       .  S
Zn1456     O1469   1.982       .  S
Zn1456     O1461   1.942       .  S
O1457      C1468   1.270       .  A
O1457     Cd1462   2.090       .  S
Cd1458     O1460   2.035       .  S
Cd1458     O1461   1.965       .  S
Cd1459     O1463   2.159       .  S
Cd1459     O1472   2.148       .  S
Cd1459     O1461   2.054       .  S
O1460      C1470   1.268       .  A
O1461     Cd1462   1.978       .  S
Cd1462     O1464   2.038       .  S
O1463      C1470   1.286       .  A
C1465      O1469   1.270       .  A
C1471      O1472   1.286       .  A
O1473      C1489   1.274       .  A
O1473     Zn1479   2.003       .  S
C1474      O1490   1.272       .  A
C1474      O1487   1.273       .  A
C1474      C1787   1.468       .  S
O1475      C1488   1.285       .  A
O1475     Cd1482   2.155       .  S
O1476      C1494   1.269       .  A
O1476     Cd1485   2.003       .  S
O1477      C1491   1.273       .  A
O1477     Cd1481   2.043       .  S
O1478      C1489   1.270       .  A
O1478     Cd1481   2.043       .  S
Zn1479     O1490   2.048       .  S
Zn1479     O1492   1.984       .  S
Zn1479     O1484   1.943       .  S
O1480      C1491   1.270       .  A
O1480     Cd1485   2.091       .  S
Cd1481     O1483   2.037       .  S
Cd1481     O1484   1.964       .  S
Cd1482     O1486   2.158       .  S
Cd1482     O1495   2.147       .  S
Cd1482     O1484   2.056       .  S
O1483      C1493   1.268       .  A
O1484     Cd1485   1.979       .  S
Cd1485     O1487   2.037       .  S
O1486      C1493   1.286       .  A
C1488      O1492   1.271       .  A
C1488      C1695   1.478       .  S
C1489      C1727   1.450       .  S
C1491      C1770   1.469       .  S
C1493      C1724   1.477       .  S
C1494      O1495   1.285       .  A
C1494      C1658   1.471       .  S
O1496      C1512   1.271       .  A
C1497      O1513   1.268       .  A
C1497      O1510   1.271       .  A
C1497      C1696   1.450       .  S
O1498      C1511   1.282       .  A
O1498     Cd1505   2.141       .  S
O1499      C1517   1.272       .  A
O1499     Cd1508   2.057       .  S
O1500      C1514   1.274       .  A
O1500     Cd1504   2.067       .  S
O1501      C1512   1.273       .  A
O1501     Cd1504   2.098       .  S
Zn1502     O1513   1.991   1_455  S
Zn1502     O1515   1.932   1_455  S
Zn1502     O1507   1.890       .  S
O1503      C1514   1.272       .  A
Cd1504     O1506   2.032       .  S
Cd1505     O1518   2.149       .  S
Cd1505     O1507   2.042   1_655  S
O1506      C1516   1.273       .  A
O1507     Cd1508   1.968   1_455  S
Cd1508     O1510   2.054       .  S
O1509      C1516   1.284       .  A
C1511      O1515   1.265       .  A
C1511      C1788   1.469       .  S
C1512      C1815   1.472       .  S
C1514      C1721   1.459       .  S
C1516      C1767   1.472       .  S
C1517      O1518   1.286       .  A
C1517      C1838   1.477       .  S
O1519      C1535   1.274       .  A
O1519     Zn1525   2.004       .  S
C1520      O1536   1.272       .  A
C1520      O1533   1.272       .  A
C1520      C1672   1.468       .  S
O1521      C1534   1.285       .  A
O1521     Cd1528   2.153       .  S
O1522      C1540   1.268       .  A
O1522     Cd1531   2.001       .  S
O1523      C1537   1.273       .  A
O1523     Cd1895   2.044       .  S
O1524      C1535   1.270       .  A
O1524     Cd1527   2.043       .  S
Zn1525     O1904   2.048       .  S
Zn1525     O1538   1.984       .  S
Zn1525     O1898   1.943       .  S
O1526      C1537   1.270       .  A
O1526     Cd1531   2.088       .  S
Cd1527     O1891   2.044       .  S
Cd1527     O1529   2.039       .  S
Cd1527     O1898   1.964       .  S
Cd1528     O1532   2.158       .  S
Cd1528     O1909   2.147       .  S
Cd1528     O1898   2.055       .  S
O1529      C1539   1.268       .  A
O1530     Zn1893   1.943   1_554  S
O1530     Cd1895   1.964       .  S
O1530     Cd1896   2.055   1_554  S
O1530     Cd1531   1.979       .  S
Cd1531     O1533   2.036       .  S
O1532      C1539   1.286       .  A
C1534      O1538   1.271       .  A
C1534      C1833   1.477       .  S
C1535      C1704   1.450       .  S
O1536     Zn1893   2.048   1_554  S
C1537      C1816   1.469       .  S
C1539      C1747   1.477       .  S
C1540      O1541   1.285       .  A
C1540      C1773   1.471       .  S
O1541     Cd1896   2.147   1_554  S
O1542      C1558   1.272       .  A
O1542     Zn1548   2.046       .  S
C1543      O1559   1.274       .  A
C1543      O1556   1.271       .  A
C1543      C1839   1.471       .  S
O1544      C1557   1.284       .  A
O1544     Cd1551   2.143       .  S
O1545      C1563   1.272       .  A
O1545     Cd1554   2.047       .  S
O1546      C1560   1.271       .  A
O1546     Cd2286   2.052       .  S
O1547      C1558   1.274       .  A
O1547     Cd1550   2.047       .  S
Zn1548     O2295   1.991   1_545  S
Zn1548     O1561   1.941       .  S
Zn1548     O1553   1.909       .  S
O1549      C1560   1.272       .  A
O1549     Cd1554   2.045       .  S
Cd1550     O2282   2.053   1_545  S
Cd1550     O1552   2.053       .  S
Cd1550     O1553   1.960       .  S
Cd1551     O1555   2.154       .  S
Cd1551     O1564   2.149   1_545  S
Cd1551     O1553   2.041       .  S
O1552      C1562   1.270       .  A
O1553     Cd2290   1.990   1_545  S
Cd1554     O1556   2.088       .  S
Cd1554     O2289   1.991       .  S
O1555      C1562   1.286       .  A
C1557      O1561   1.268       .  A
C1557      C1681   1.468       .  S
C1558      C1741   1.468       .  S
O1559     Zn2284   1.991       .  S
C1560      C1750   1.446       .  S
C1562      C1810   1.478       .  S
C1563      O2300   1.285       .  A
C1563      C1678   1.477       .  S
O1564      C2299   1.285       .  A
O1565      C1581   1.271       .  A
C1566      O1582   1.268       .  A
C1566      O1579   1.271       .  A
C1566      C1834   1.449       .  S
O1567      C1580   1.282       .  A
O1567     Cd1574   2.141       .  S
O1568      C1586   1.272       .  A
O1568     Cd1577   2.057       .  S
O1569      C1583   1.274       .  A
O1569     Cd1941   2.065       .  S
O1570      C1581   1.273       .  A
O1570     Cd1573   2.097       .  S
Zn1571     O1950   1.991   1_454  S
Zn1571     O1584   1.932   1_455  S
O1572      C1583   1.272       .  A
Cd1573     O1937   2.066   1_554  S
Cd1573     O1575   2.032       .  S
Cd1573     O1576   1.985       .  S
Cd1574     O1587   2.149   1_554  S
O1575      C1585   1.273       .  A
Cd1577     O1579   2.053       .  S
O1578      C1585   1.284       .  A
C1580      O1584   1.265       .  A
C1580      C1673   1.469       .  S
C1581      C1769   1.471       .  S
O1582     Zn1939   1.991   1_655  S
C1583      C1744   1.458       .  S
C1585      C1813   1.472       .  S
C1586      O1955   1.286       .  A
C1586      C1700   1.477       .  S
O1587      C1954   1.286       .  A
O1588      C1604   1.271       .  A
C1589      O1605   1.272       .  A
C1589      O1602   1.267       .  A
C1589      C1675   1.446       .  S
O1590      C1603   1.285       .  A
O1590     Cd1597   2.147       .  S
O1591      C1609   1.265       .  A
O1591     Cd1600   1.992   1_655  S
O1592      C1606   1.273       .  A
O1592     Cd2332   2.104       .  S
O1593      C1604   1.273       .  A
O1593     Cd1596   2.054       .  S
Zn1594     O2341   2.006   1_545  S
Zn1594     O1607   2.001       .  S
O1595      C1606   1.269       .  A
Cd1596     O2328   2.104   1_545  S
Cd1596     O1598   2.026       .  S
Cd1596     O1599   1.986       .  S
Cd1597     O2346   2.142       .  S
O1598      C1608   1.273       .  A
Cd1600     O1602   2.027   1_455  S
O1601      C1608   1.283       .  A
C1603      O1607   1.271       .  A
C1603      C1792   1.479       .  S
C1604      C1811   1.452       .  S
O1605     Zn2330   2.006       .  S
C1606      C1723   1.471       .  S
C1608      C1742   1.471       .  S
C1609      O1610   1.283       .  A
C1609      C1836   1.469       .  S
O1610     Cd2333   2.142       .  S
O1611      C1627   1.272       .  A
O1611     Zn1617   2.044       .  S
C1612      O1628   1.274       .  A
C1612      O1625   1.271       .  A
C1612      C1701   1.471       .  S
O1613      C1994   1.284   1_554  A
O1613     Cd1620   2.143       .  S
O1614      C1632   1.272       .  A
O1614     Cd1623   2.047       .  S
O1615      C1629   1.271       .  A
O1615     Cd2355   2.053   1_545  S
O1616      C1627   1.274       .  A
O1616     Cd1987   2.047       .  S
Zn1617     O2364   1.989       .  S
Zn1617     O1630   1.939       .  S
Zn1617     O2726   1.908       .  S
O1618      C1629   1.272       .  A
O1618     Cd1623   2.045       .  S
Cd1619     O2351   2.052       .  S
Cd1619     O1984   2.047   1_554  S
Cd1619     O1621   2.054       .  S
Cd1619     O2358   1.959   1_554  S
Cd1620     O1624   2.153       .  S
Cd1620     O2369   2.148       .  S
Cd1620     O2358   2.039   1_554  S
O1621      C1631   1.270       .  A
O1622     Zn2721   1.907       .  S
O1622     Cd2355   1.959   1_546  S
O1622     Cd2356   2.039   1_546  S
O1622     Cd1623   1.989   1_556  S
Cd1623     O1993   2.088   1_554  S
O1624      C1631   1.286       .  A
O1625     Cd1991   2.088       .  S
C1626      O1981   1.284       .  A
C1626      O1630   1.267       .  A
C1626      C1819   1.468       .  S
C1627      C1718   1.468       .  S
O1628     Zn2353   1.989       .  S
C1629      C1796   1.446       .  S
C1631      C1764   1.478       .  S
C1632      O1633   1.285       .  A
C1632      C1793   1.476       .  S
O1633     Cd2356   2.148   1_545  S
O1634      C1650   1.271       .  A
C1635      O1651   1.272       .  A
C1635      O1648   1.267       .  A
C1635      C1790   1.446       .  S
O1636      C1649   1.285       .  A
O1636     Cd2011   2.147   1_554  S
O1637      C1655   1.265       .  A
O1637     Cd1646   1.991   1_655  S
O1638      C1652   1.273       .  A
O1638     Cd2746   2.103   1_545  S
O1639      C1650   1.273       .  A
O1639     Cd1642   2.054       .  S
Zn1640     O2387   2.005       .  S
Zn1640     O1653   2.001       .  S
O1641      C1652   1.269       .  A
Cd1642     O2742   2.102   1_554  S
Cd1642     O2012   2.026   1_554  S
Cd1642     O2381   1.985       .  S
Cd1643     O2004   2.147       .  S
Cd1643     O2392   2.141       .  S
O1644      C1654   1.273       .  A
O1644     Cd2010   2.026       .  S
O1645     Cd2378   1.985   1_545  S
Cd1646     O2016   2.026   1_455  S
O1647      C1654   1.283       .  A
O1648     Cd2014   2.026   1_654  S
C1649      O1653   1.271       .  A
C1649      C1677   1.479       .  S
C1650      C1765   1.452       .  S
O1651     Zn2376   2.005       .  S
C1652      C1746   1.471       .  S
C1654      C1719   1.471       .  S
C1655      O1656   1.283       .  A
C1655      C1698   1.469       .  S
O1656     Cd2379   2.141   1_545  S
O1657      C1673   1.272       .  A
O1657     Zn1663   2.048       .  S
C1658      O1674   1.274       .  A
C1658      O1671   1.271       .  A
O1659      C1672   1.284       .  A
O1659     Cd1666   2.142       .  S
O1660      C1678   1.272       .  A
O1660     Cd1669   2.047       .  S
O1661      C1675   1.271       .  A
O1661     Cd1665   2.053       .  S
O1662      C1673   1.274       .  A
O1662     Cd1665   2.049       .  S
Zn1663     O1674   1.990       .  S
Zn1663     O1676   1.940       .  S
Zn1663     O1668   1.908       .  S
O1664      C1675   1.272       .  A
O1664     Cd1669   2.044       .  S
Cd1665     O1667   2.056       .  S
Cd1665     O1668   1.960       .  S
Cd1666     O1670   2.154       .  S
Cd1666     O1679   2.150       .  S
Cd1666     O1668   2.040       .  S
O1667      C1677   1.270       .  A
O1668     Cd1669   1.990       .  S
Cd1669     O1671   2.089       .  S
O1670      C1677   1.286       .  A
C1672      O1676   1.268       .  A
C1678      O1679   1.285       .  A
O1680      C1696   1.274       .  A
O1680     Zn1686   2.003       .  S
C1681      O1697   1.272       .  A
C1681      O1694   1.273       .  A
O1682      C1695   1.285       .  A
O1682     Cd1689   2.155       .  S
O1683      C1701   1.268       .  A
O1683     Cd1692   2.003       .  S
O1684      C1698   1.273       .  A
O1684     Cd1688   2.042       .  S
O1685      C1696   1.270       .  A
O1685     Cd1688   2.042       .  S
Zn1686     O1697   2.047       .  S
Zn1686     O1699   1.983       .  S
Zn1686     O1691   1.941       .  S
O1687      C1698   1.270       .  A
O1687     Cd1692   2.090       .  S
Cd1688     O1690   2.036       .  S
Cd1688     O1691   1.965       .  S
Cd1689     O1693   2.158       .  S
Cd1689     O1702   2.146       .  S
Cd1689     O1691   2.054       .  S
O1690      C1700   1.268       .  A
O1691     Cd1692   1.978       .  S
Cd1692     O1694   2.038       .  S
O1693      C1700   1.286       .  A
C1695      O1699   1.270       .  A
C1701      O1702   1.286       .  A
O1703      C1719   1.271       .  A
O1703     Zn1709   1.984       .  S
C1704      O1720   1.268       .  A
C1704      O1717   1.272       .  A
O1705      C1718   1.282       .  A
O1705     Cd1712   2.139       .  S
O1706      C1724   1.271       .  A
O1706     Cd1715   2.055       .  S
O1707      C1721   1.274       .  A
O1707     Cd1711   2.065       .  S
O1708      C1719   1.273       .  A
O1708     Cd1711   2.095       .  S
Zn1709     O1720   1.993       .  S
Zn1709     O1722   1.933       .  S
Zn1709     O1714   1.890       .  S
O1710      C1721   1.272       .  A
O1710     Cd1715   2.061       .  S
Cd1711     O1713   2.030       .  S
Cd1711     O1714   1.985       .  S
Cd1712     O1716   2.133       .  S
Cd1712     O1725   2.149       .  S
Cd1712     O1714   2.041       .  S
O1713      C1723   1.273       .  A
O1714     Cd1715   1.967       .  S
Cd1715     O1717   2.054       .  S
O1716      C1723   1.284       .  A
C1718      O1722   1.265       .  A
C1724      O1725   1.286       .  A
O1726      C1742   1.271       .  A
O1726     Zn1732   1.984       .  S
C1727      O1743   1.268       .  A
C1727      O1740   1.271       .  A
O1728      C1741   1.282       .  A
O1728     Cd1735   2.140       .  S
O1729      C1747   1.272       .  A
O1729     Cd1738   2.056       .  S
O1730      C1744   1.274       .  A
O1730     Cd1734   2.064       .  S
O1731      C1742   1.273       .  A
O1731     Cd1734   2.095       .  S
Zn1732     O1743   1.992       .  S
Zn1732     O1745   1.932       .  S
Zn1732     O1737   1.889       .  S
O1733      C1744   1.272       .  A
O1733     Cd1738   2.059       .  S
Cd1734     O1736   2.030       .  S
Cd1734     O1737   1.986       .  S
Cd1735     O1739   2.132       .  S
Cd1735     O1748   2.150       .  S
Cd1735     O1737   2.041       .  S
O1736      C1746   1.273       .  A
O1737     Cd1738   1.967       .  S
Cd1738     O1740   2.054       .  S
O1739      C1746   1.284       .  A
C1741      O1745   1.265       .  A
C1747      O1748   1.286       .  A
O1749      C1765   1.271       .  A
O1749     Zn1755   1.998       .  S
C1750      O1766   1.272       .  A
C1750      O1763   1.267       .  A
O1751      C1764   1.284       .  A
O1751     Cd1758   2.145       .  S
O1752      C1770   1.265       .  A
O1752     Cd1761   1.990       .  S
O1753      C1767   1.273       .  A
O1753     Cd1757   2.106       .  S
O1754      C1765   1.273       .  A
O1754     Cd1757   2.054       .  S
Zn1755     O1766   2.006       .  S
Zn1755     O1768   2.001       .  S
Zn1755     O1760   1.923       .  S
O1756      C1767   1.269       .  A
O1756     Cd1761   2.035       .  S
Cd1757     O1759   2.029       .  S
Cd1757     O1760   1.986       .  S
Cd1758     O1762   2.130       .  S
Cd1758     O1771   2.144       .  S
Cd1758     O1760   2.043       .  S
O1759      C1769   1.273       .  A
O1760     Cd1761   1.948       .  S
Cd1761     O1763   2.026       .  S
O1762      C1769   1.283       .  A
C1764      O1768   1.271       .  A
C1770      O1771   1.283       .  A
O1772      C1788   1.272       .  A
O1772     Zn1778   2.047       .  S
C1773      O1789   1.274       .  A
C1773      O1786   1.271       .  A
O1774      C1787   1.284       .  A
O1774     Cd1781   2.142       .  S
O1775      C1793   1.272       .  A
O1775     Cd1784   2.046       .  S
O1776      C1790   1.271       .  A
O1776     Cd1780   2.052       .  S
O1777      C1788   1.274       .  A
O1777     Cd1780   2.047       .  S
Zn1778     O1789   1.990       .  S
Zn1778     O1791   1.939       .  S
Zn1778     O1783   1.908       .  S
O1779      C1790   1.272       .  A
O1779     Cd1784   2.043       .  S
Cd1780     O1782   2.054       .  S
Cd1780     O1783   1.960       .  S
Cd1781     O1785   2.154       .  S
Cd1781     O1794   2.149       .  S
Cd1781     O1783   2.040       .  S
O1782      C1792   1.270       .  A
O1783     Cd1784   1.990       .  S
Cd1784     O1786   2.088       .  S
O1785      C1792   1.286       .  A
C1787      O1791   1.268       .  A
C1793      O1794   1.285       .  A
O1795      C1811   1.271       .  A
O1795     Zn1801   1.999       .  S
C1796      O1812   1.272       .  A
C1796      O1809   1.267       .  A
O1797      C1810   1.285       .  A
O1797     Cd1804   2.146       .  S
O1798      C1816   1.265       .  A
O1798     Cd1807   1.989       .  S
O1799      C1813   1.273       .  A
O1799     Cd1803   2.104       .  S
O1800      C1811   1.273       .  A
O1800     Cd1803   2.055       .  S
Zn1801     O1812   2.007       .  S
Zn1801     O1814   2.002       .  S
Zn1801     O1806   1.923       .  S
O1802      C1813   1.269       .  A
O1802     Cd1807   2.036       .  S
Cd1803     O1805   2.029       .  S
Cd1803     O1806   1.985       .  S
Cd1804     O1808   2.131       .  S
Cd1804     O1817   2.143       .  S
Cd1804     O1806   2.043       .  S
O1805      C1815   1.273       .  A
O1806     Cd1807   1.948       .  S
Cd1807     O1809   2.026       .  S
O1808      C1815   1.283       .  A
C1810      O1814   1.271       .  A
C1816      O1817   1.283       .  A
O1818      C1834   1.274       .  A
O1818     Zn1824   2.001       .  S
C1819      O1835   1.272       .  A
C1819      O1832   1.273       .  A
O1820      C1833   1.285       .  A
O1820     Cd1827   2.154       .  S
O1821      C1839   1.268       .  A
O1821     Cd1830   2.003       .  S
O1822      C1836   1.273       .  A
O1822     Cd1826   2.042       .  S
O1823      C1834   1.270       .  A
O1823     Cd1826   2.042       .  S
Zn1824     O1835   2.046       .  S
Zn1824     O1837   1.982       .  S
Zn1824     O1829   1.942       .  S
O1825      C1836   1.270       .  A
O1825     Cd1830   2.090       .  S
Cd1826     O1828   2.034       .  S
Cd1826     O1829   1.965       .  S
Cd1827     O1831   2.160       .  S
Cd1827     O1840   2.148       .  S
Cd1827     O1829   2.054       .  S
O1828      C1838   1.268       .  A
O1829     Cd1830   1.978       .  S
Cd1830     O1832   2.038       .  S
O1831      C1838   1.286       .  A
C1833      O1837   1.270       .  A
C1839      O1840   1.286       .  A
O1841      C1857   1.274       .  A
O1841     Zn1847   2.003       .  S
C1842      O1858   1.272       .  A
C1842      O1855   1.273       .  A
C1842      C2155   1.468       .  S
O1843      C1856   1.285       .  A
O1843     Cd1850   2.155       .  S
O1844      C1862   1.269       .  A
O1844     Cd1853   2.003       .  S
O1845      C1859   1.273       .  A
O1845     Cd1849   2.043       .  S
O1846      C1857   1.270       .  A
O1846     Cd1849   2.043       .  S
Zn1847     O1858   2.048       .  S
Zn1847     O1860   1.984       .  S
Zn1847     O1852   1.943       .  S
O1848      C1859   1.270       .  A
O1848     Cd1853   2.091       .  S
Cd1849     O1851   2.037       .  S
Cd1849     O1852   1.964       .  S
Cd1850     O1854   2.158       .  S
Cd1850     O1863   2.147       .  S
Cd1850     O1852   2.055       .  S
O1851      C1861   1.268       .  A
O1852     Cd1853   1.979       .  S
Cd1853     O1855   2.037       .  S
O1854      C1861   1.286       .  A
C1856      O1860   1.271       .  A
C1856      C2063   1.478       .  S
C1857      C2095   1.450       .  S
C1859      C2138   1.469       .  S
C1861      C2092   1.477       .  S
C1862      O1863   1.286       .  A
C1862      C2026   1.471       .  S
O1864      C1880   1.271       .  A
C1865      O1881   1.268       .  A
C1865      O1878   1.271       .  A
C1865      C2064   1.450       .  S
O1866      C1879   1.282       .  A
O1866     Cd1873   2.141       .  S
O1867      C1885   1.272       .  A
O1867     Cd1876   2.057       .  S
O1868      C1882   1.274       .  A
O1868     Cd1872   2.067       .  S
O1869      C1880   1.274       .  A
O1869     Cd1872   2.098       .  S
Zn1870     O1881   1.992   1_455  S
Zn1870     O1883   1.932   1_455  S
Zn1870     O1875   1.890       .  S
O1871      C1882   1.272       .  A
Cd1872     O1874   2.032       .  S
Cd1873     O1886   2.149       .  S
Cd1873     O1875   2.042   1_655  S
O1874      C1884   1.273       .  A
O1875     Cd1876   1.968   1_455  S
Cd1876     O1878   2.054       .  S
O1877      C1884   1.284       .  A
C1879      O1883   1.265       .  A
C1879      C2156   1.469       .  S
C1880      C2183   1.472       .  S
C1882      C2089   1.459       .  S
C1884      C2135   1.472       .  S
C1885      O1886   1.286       .  A
C1885      C2206   1.477       .  S
O1887      C1903   1.274       .  A
O1887     Zn1893   2.004       .  S
C1888      O1904   1.272       .  A
C1888      O1901   1.272       .  A
C1888      C2040   1.468       .  S
O1889      C1902   1.285       .  A
O1889     Cd1896   2.153       .  S
O1890      C1908   1.268       .  A
O1890     Cd1899   2.001       .  S
O1891      C1905   1.273       .  A
O1892      C1903   1.270       .  A
O1892     Cd1895   2.043   1_556  S
Zn1893     O1906   1.984       .  S
O1894      C1905   1.270       .  A
O1894     Cd1899   2.088       .  S
Cd1895     O1897   2.039   1_554  S
Cd1896     O1900   2.157       .  S
O1897      C1907   1.269       .  A
O1898     Cd1899   1.979       .  S
Cd1899     O1901   2.036       .  S
O1900      C1907   1.286       .  A
C1902      O1906   1.271       .  A
C1902      C2201   1.477       .  S
C1903      C2072   1.450       .  S
C1905      C2184   1.469       .  S
C1907      C2115   1.477       .  S
C1908      O1909   1.286       .  A
C1908      C2141   1.471       .  S
O1910      C1926   1.272       .  A
O1910     Zn1916   2.046       .  S
C1911      O1927   1.274       .  A
C1911      O1924   1.271       .  A
C1911      C2207   1.471       .  S
O1912      C1925   1.284       .  A
O1912     Cd1919   2.143       .  S
O1913      C1931   1.272       .  A
O1913     Cd1922   2.047       .  S
O1914      C1928   1.271       .  A
O1914     Cd2654   2.052       .  S
O1915      C1926   1.274       .  A
O1915     Cd1918   2.047       .  S
Zn1916     O2663   1.991   1_545  S
Zn1916     O1929   1.941       .  S
Zn1916     O1921   1.909       .  S
O1917      C1928   1.272       .  A
O1917     Cd1922   2.045       .  S
Cd1918     O2650   2.053   1_545  S
Cd1918     O1920   2.054       .  S
Cd1918     O1921   1.960       .  S
Cd1919     O1923   2.153       .  S
Cd1919     O1932   2.149   1_545  S
Cd1919     O1921   2.041       .  S
O1920      C1930   1.270       .  A
O1921     Cd2658   1.990   1_545  S
Cd1922     O1924   2.088       .  S
Cd1922     O2657   1.990       .  S
O1923      C1930   1.286       .  A
C1925      O1929   1.268       .  A
C1925      C2049   1.468       .  S
C1926      C2109   1.468       .  S
O1927     Zn2652   1.991       .  S
C1928      C2118   1.446       .  S
C1930      C2178   1.478       .  S
C1931      O2668   1.285       .  A
C1931      C2046   1.477       .  S
O1932      C2667   1.285       .  A
O1933      C1949   1.271       .  A
C1934      O1950   1.268       .  A
C1934      O1947   1.271       .  A
C1934      C2202   1.449       .  S
O1935      C1948   1.282       .  A
O1935     Cd1942   2.141       .  S
O1936      C1954   1.272       .  A
O1936     Cd1945   2.057       .  S
O1937      C1951   1.274       .  A
O1938      C1949   1.273       .  A
O1938     Cd1941   2.097       .  S
Zn1939     O1952   1.933   1_455  S
O1940      C1951   1.272       .  A
Cd1941     O1943   2.032       .  S
Cd1941     O1944   1.985       .  S
Cd1942     O1955   2.149       .  S
O1943      C1953   1.273       .  A
Cd1945     O1947   2.053       .  S
O1946      C1953   1.284       .  A
C1948      O1952   1.265       .  A
C1948      C2041   1.469       .  S
C1949      C2137   1.471       .  S
C1951      C2112   1.458       .  S
C1953      C2181   1.472       .  S
C1954      C2068   1.477       .  S
O1956      C1972   1.271       .  A
C1957      O1973   1.272       .  A
C1957      O1970   1.267       .  A
C1957      C2043   1.446       .  S
O1958      C1971   1.285       .  A
O1958     Cd1965   2.147       .  S
O1959      C1977   1.265       .  A
O1959     Cd1968   1.991   1_655  S
O1960      C1974   1.273       .  A
O1960     Cd2700   2.103       .  S
O1961      C1972   1.273       .  A
O1961     Cd1964   2.054       .  S
Zn1962     O2709   2.006   1_545  S
Zn1962     O1975   2.001       .  S
O1963      C1974   1.269       .  A
Cd1964     O2696   2.103   1_545  S
Cd1964     O1966   2.026       .  S
Cd1964     O1967   1.986       .  S
Cd1965     O2714   2.142       .  S
O1966      C1976   1.273       .  A
Cd1968     O1970   2.027   1_455  S
O1969      C1976   1.283       .  A
C1971      O1975   1.271       .  A
C1971      C2160   1.478       .  S
C1972      C2179   1.452       .  S
O1973     Zn2698   2.006       .  S
C1974      C2091   1.471       .  S
C1976      C2110   1.471       .  S
C1977      O1978   1.283       .  A
C1977      C2204   1.469       .  S
O1978     Cd2701   2.142       .  S
O1979      C1995   1.272       .  A
O1979     Zn1985   2.044       .  S
C1980      O1996   1.274       .  A
C1980      O1993   1.271       .  A
C1980      C2069   1.471       .  S
O1981     Cd1988   2.143       .  S
O1982      C2000   1.272       .  A
O1982     Cd1991   2.047       .  S
O1983      C1997   1.271       .  A
O1983     Cd2723   2.053   1_545  S
O1984      C1995   1.274       .  A
Zn1985     O2732   1.989       .  S
Zn1985     O1998   1.940       .  S
Zn1985     O2358   1.907       .  S
O1986      C1997   1.272       .  A
O1986     Cd1991   2.045       .  S
Cd1987     O2719   2.053       .  S
Cd1987     O1989   2.054       .  S
Cd1987     O2726   1.959       .  S
Cd1988     O1992   2.153       .  S
Cd1988     O2737   2.148       .  S
Cd1988     O2726   2.040       .  S
O1989      C1999   1.270       .  A
O1990     Zn2353   1.907       .  S
O1990     Cd2723   1.959   1_545  S
O1990     Cd2724   2.039   1_545  S
O1990     Cd1991   1.989       .  S
O1992      C1999   1.286       .  A
C1994      O1998   1.267       .  A
C1994      C2187   1.468       .  S
C1995      C2086   1.468       .  S
O1996     Zn2721   1.989       .  S
C1997      C2164   1.447       .  S
C1999      C2132   1.478       .  S
C2000      O2001   1.285       .  A
C2000      C2161   1.476       .  S
O2001     Cd2724   2.148   1_545  S
O2002      C2018   1.271       .  A
C2003      O2019   1.272       .  A
C2003      O2016   1.267       .  A
C2003      C2158   1.446       .  S
O2004      C2017   1.285       .  A
O2005      C2023   1.265       .  A
O2005     Cd2014   1.991   1_655  S
O2006      C2020   1.273       .  A
O2006     Cd2378   2.102   1_546  S
O2007      C2018   1.273       .  A
O2007     Cd2010   2.054       .  S
Zn2008     O2755   2.005       .  S
Zn2008     O2021   2.001       .  S
O2009      C2020   1.269       .  A
Cd2010     O2374   2.103       .  S
Cd2010     O2749   1.985       .  S
Cd2011     O2760   2.141       .  S
O2012      C2022   1.273       .  A
O2013     Cd2746   1.985   1_545  S
O2015      C2022   1.283       .  A
C2017      O2021   1.271       .  A
C2017      C2045   1.479       .  S
C2018      C2133   1.452       .  S
O2019     Zn2744   2.005       .  S
C2020      C2114   1.471       .  S
C2022      C2087   1.471       .  S
C2023      O2024   1.283       .  A
C2023      C2066   1.469       .  S
O2024     Cd2747   2.141   1_545  S
O2025      C2041   1.272       .  A
O2025     Zn2031   2.048       .  S
C2026      O2042   1.274       .  A
C2026      O2039   1.271       .  A
O2027      C2040   1.284       .  A
O2027     Cd2034   2.142       .  S
O2028      C2046   1.272       .  A
O2028     Cd2037   2.047       .  S
O2029      C2043   1.271       .  A
O2029     Cd2033   2.053       .  S
O2030      C2041   1.274       .  A
O2030     Cd2033   2.049       .  S
Zn2031     O2042   1.990       .  S
Zn2031     O2044   1.939       .  S
Zn2031     O2036   1.908       .  S
O2032      C2043   1.272       .  A
O2032     Cd2037   2.043       .  S
Cd2033     O2035   2.056       .  S
Cd2033     O2036   1.960       .  S
Cd2034     O2038   2.154       .  S
Cd2034     O2047   2.150       .  S
Cd2034     O2036   2.040       .  S
O2035      C2045   1.270       .  A
O2036     Cd2037   1.990       .  S
Cd2037     O2039   2.088       .  S
O2038      C2045   1.286       .  A
C2040      O2044   1.268       .  A
C2046      O2047   1.285       .  A
O2048      C2064   1.274       .  A
O2048     Zn2054   2.003       .  S
C2049      O2065   1.272       .  A
C2049      O2062   1.273       .  A
O2050      C2063   1.285       .  A
O2050     Cd2057   2.155       .  S
O2051      C2069   1.268       .  A
O2051     Cd2060   2.003       .  S
O2052      C2066   1.273       .  A
O2052     Cd2056   2.042       .  S
O2053      C2064   1.270       .  A
O2053     Cd2056   2.042       .  S
Zn2054     O2065   2.047       .  S
Zn2054     O2067   1.983       .  S
Zn2054     O2059   1.941       .  S
O2055      C2066   1.270       .  A
O2055     Cd2060   2.090       .  S
Cd2056     O2058   2.036       .  S
Cd2056     O2059   1.965       .  S
Cd2057     O2061   2.157       .  S
Cd2057     O2070   2.146       .  S
Cd2057     O2059   2.054       .  S
O2058      C2068   1.268       .  A
O2059     Cd2060   1.978       .  S
Cd2060     O2062   2.038       .  S
O2061      C2068   1.286       .  A
C2063      O2067   1.270       .  A
C2069      O2070   1.286       .  A
O2071      C2087   1.271       .  A
O2071     Zn2077   1.984       .  S
C2072      O2088   1.268       .  A
C2072      O2085   1.272       .  A
O2073      C2086   1.282       .  A
O2073     Cd2080   2.139       .  S
O2074      C2092   1.271       .  A
O2074     Cd2083   2.055       .  S
O2075      C2089   1.274       .  A
O2075     Cd2079   2.065       .  S
O2076      C2087   1.273       .  A
O2076     Cd2079   2.095       .  S
Zn2077     O2088   1.992       .  S
Zn2077     O2090   1.932       .  S
Zn2077     O2082   1.890       .  S
O2078      C2089   1.272       .  A
O2078     Cd2083   2.060       .  S
Cd2079     O2081   2.030       .  S
Cd2079     O2082   1.986       .  S
Cd2080     O2084   2.133       .  S
Cd2080     O2093   2.150       .  S
Cd2080     O2082   2.041       .  S
O2081      C2091   1.273       .  A
O2082     Cd2083   1.967       .  S
Cd2083     O2085   2.054       .  S
O2084      C2091   1.284       .  A
C2086      O2090   1.265       .  A
C2092      O2093   1.286       .  A
O2094      C2110   1.271       .  A
O2094     Zn2100   1.984       .  S
C2095      O2111   1.268       .  A
C2095      O2108   1.271       .  A
O2096      C2109   1.282       .  A
O2096     Cd2103   2.140       .  S
O2097      C2115   1.272       .  A
O2097     Cd2106   2.056       .  S
O2098      C2112   1.274       .  A
O2098     Cd2102   2.064       .  S
O2099      C2110   1.273       .  A
O2099     Cd2102   2.095       .  S
Zn2100     O2111   1.992       .  S
Zn2100     O2113   1.932       .  S
Zn2100     O2105   1.889       .  S
O2101      C2112   1.272       .  A
O2101     Cd2106   2.059       .  S
Cd2102     O2104   2.030       .  S
Cd2102     O2105   1.986       .  S
Cd2103     O2107   2.132       .  S
Cd2103     O2116   2.149       .  S
Cd2103     O2105   2.041       .  S
O2104      C2114   1.273       .  A
O2105     Cd2106   1.967       .  S
Cd2106     O2108   2.054       .  S
O2107      C2114   1.284       .  A
C2109      O2113   1.265       .  A
C2115      O2116   1.286       .  A
O2117      C2133   1.271       .  A
O2117     Zn2123   1.998       .  S
C2118      O2134   1.272       .  A
C2118      O2131   1.267       .  A
O2119      C2132   1.284       .  A
O2119     Cd2126   2.145       .  S
O2120      C2138   1.265       .  A
O2120     Cd2129   1.990       .  S
O2121      C2135   1.273       .  A
O2121     Cd2125   2.106       .  S
O2122      C2133   1.273       .  A
O2122     Cd2125   2.054       .  S
Zn2123     O2134   2.006       .  S
Zn2123     O2136   2.001       .  S
Zn2123     O2128   1.923       .  S
O2124      C2135   1.269       .  A
O2124     Cd2129   2.035       .  S
Cd2125     O2127   2.029       .  S
Cd2125     O2128   1.986       .  S
Cd2126     O2130   2.130       .  S
Cd2126     O2139   2.143       .  S
Cd2126     O2128   2.043       .  S
O2127      C2137   1.273       .  A
O2128     Cd2129   1.948       .  S
Cd2129     O2131   2.027       .  S
O2130      C2137   1.283       .  A
C2132      O2136   1.271       .  A
C2138      O2139   1.283       .  A
O2140      C2156   1.272       .  A
O2140     Zn2146   2.047       .  S
C2141      O2157   1.274       .  A
C2141      O2154   1.271       .  A
O2142      C2155   1.284       .  A
O2142     Cd2149   2.142       .  S
O2143      C2161   1.272       .  A
O2143     Cd2152   2.046       .  S
O2144      C2158   1.271       .  A
O2144     Cd2148   2.052       .  S
O2145      C2156   1.274       .  A
O2145     Cd2148   2.048       .  S
Zn2146     O2157   1.990       .  S
Zn2146     O2159   1.939       .  S
Zn2146     O2151   1.908       .  S
O2147      C2158   1.272       .  A
O2147     Cd2152   2.043       .  S
Cd2148     O2150   2.054       .  S
Cd2148     O2151   1.960       .  S
Cd2149     O2153   2.154       .  S
Cd2149     O2162   2.150       .  S
Cd2149     O2151   2.040       .  S
O2150      C2160   1.270       .  A
O2151     Cd2152   1.990       .  S
Cd2152     O2154   2.088       .  S
O2153      C2160   1.286       .  A
C2155      O2159   1.268       .  A
C2161      O2162   1.285       .  A
O2163      C2179   1.271       .  A
O2163     Zn2169   1.999       .  S
C2164      O2180   1.272       .  A
C2164      O2177   1.267       .  A
O2165      C2178   1.285       .  A
O2165     Cd2172   2.146       .  S
O2166      C2184   1.265       .  A
O2166     Cd2175   1.989       .  S
O2167      C2181   1.273       .  A
O2167     Cd2171   2.104       .  S
O2168      C2179   1.273       .  A
O2168     Cd2171   2.055       .  S
Zn2169     O2180   2.007       .  S
Zn2169     O2182   2.002       .  S
Zn2169     O2174   1.923       .  S
O2170      C2181   1.269       .  A
O2170     Cd2175   2.036       .  S
Cd2171     O2173   2.029       .  S
Cd2171     O2174   1.985       .  S
Cd2172     O2176   2.131       .  S
Cd2172     O2185   2.143       .  S
Cd2172     O2174   2.044       .  S
O2173      C2183   1.273       .  A
O2174     Cd2175   1.948       .  S
Cd2175     O2177   2.026       .  S
O2176      C2183   1.283       .  A
C2178      O2182   1.271       .  A
C2184      O2185   1.283       .  A
O2186      C2202   1.274       .  A
O2186     Zn2192   2.001       .  S
C2187      O2203   1.272       .  A
C2187      O2200   1.273       .  A
O2188      C2201   1.285       .  A
O2188     Cd2195   2.154       .  S
O2189      C2207   1.268       .  A
O2189     Cd2198   2.002       .  S
O2190      C2204   1.273       .  A
O2190     Cd2194   2.042       .  S
O2191      C2202   1.270       .  A
O2191     Cd2194   2.042       .  S
Zn2192     O2203   2.046       .  S
Zn2192     O2205   1.982       .  S
Zn2192     O2197   1.942       .  S
O2193      C2204   1.270       .  A
O2193     Cd2198   2.090       .  S
Cd2194     O2196   2.035       .  S
Cd2194     O2197   1.965       .  S
Cd2195     O2199   2.159       .  S
Cd2195     O2208   2.148       .  S
Cd2195     O2197   2.054       .  S
O2196      C2206   1.268       .  A
O2197     Cd2198   1.978       .  S
Cd2198     O2200   2.038       .  S
O2199      C2206   1.286       .  A
C2201      O2205   1.270       .  A
C2207      O2208   1.286       .  A
O2209      C2225   1.274       .  A
O2209     Zn2215   2.003       .  S
C2210      O2226   1.272       .  A
C2210      O2223   1.273       .  A
C2210      C2523   1.468       .  S
O2211      C2224   1.285       .  A
O2211     Cd2218   2.155       .  S
O2212      C2230   1.269       .  A
O2212     Cd2221   2.003       .  S
O2213      C2227   1.273       .  A
O2213     Cd2217   2.043       .  S
O2214      C2225   1.270       .  A
O2214     Cd2217   2.043       .  S
Zn2215     O2226   2.048       .  S
Zn2215     O2228   1.984       .  S
Zn2215     O2220   1.943       .  S
O2216      C2227   1.270       .  A
O2216     Cd2221   2.091       .  S
Cd2217     O2219   2.037       .  S
Cd2217     O2220   1.964       .  S
Cd2218     O2222   2.157       .  S
Cd2218     O2231   2.147       .  S
Cd2218     O2220   2.056       .  S
O2219      C2229   1.268       .  A
O2220     Cd2221   1.980       .  S
Cd2221     O2223   2.037       .  S
O2222      C2229   1.286       .  A
C2224      O2228   1.271       .  A
C2224      C2431   1.478       .  S
C2225      C2463   1.450       .  S
C2227      C2506   1.470       .  S
C2229      C2460   1.477       .  S
C2230      O2231   1.286       .  A
C2230      C2394   1.471       .  S
O2232      C2248   1.271       .  A
C2233      O2249   1.268       .  A
C2233      O2246   1.271       .  A
C2233      C2432   1.450       .  S
O2234      C2247   1.282       .  A
O2234     Cd2241   2.141       .  S
O2235      C2253   1.272       .  A
O2235     Cd2244   2.058       .  S
O2236      C2250   1.274       .  A
O2236     Cd2240   2.067       .  S
O2237      C2248   1.273       .  A
O2237     Cd2240   2.098       .  S
Zn2238     O2249   1.991   1_455  S
Zn2238     O2251   1.932   1_455  S
Zn2238     O2243   1.890       .  S
O2239      C2250   1.272       .  A
Cd2240     O2242   2.031       .  S
Cd2241     O2254   2.149       .  S
Cd2241     O2243   2.042   1_655  S
O2242      C2252   1.273       .  A
O2243     Cd2244   1.968   1_455  S
Cd2244     O2246   2.054       .  S
O2245      C2252   1.284       .  A
C2247      O2251   1.265       .  A
C2247      C2524   1.469       .  S
C2248      C2551   1.472       .  S
C2250      C2457   1.459       .  S
C2252      C2503   1.472       .  S
C2253      O2254   1.286       .  A
C2253      C2574   1.477       .  S
O2255      C2271   1.274       .  A
O2255     Zn2261   2.003       .  S
C2256      O2272   1.272       .  A
C2256      O2269   1.272       .  A
C2256      C2408   1.468       .  S
O2257      C2270   1.285       .  A
O2257     Cd2264   2.153       .  S
O2258      C2276   1.268       .  A
O2258     Cd2267   2.001       .  S
O2259      C2273   1.274       .  A
O2259     Cd2631   2.044       .  S
O2260      C2271   1.270       .  A
O2260     Cd2263   2.043       .  S
Zn2261     O2640   2.048       .  S
Zn2261     O2274   1.984       .  S
Zn2261     O2634   1.943       .  S
O2262      C2273   1.270       .  A
O2262     Cd2267   2.088       .  S
Cd2263     O2627   2.044       .  S
Cd2263     O2265   2.039       .  S
Cd2263     O2634   1.963       .  S
Cd2264     O2268   2.157       .  S
Cd2264     O2645   2.147       .  S
Cd2264     O2634   2.055       .  S
O2265      C2275   1.269       .  A
O2266     Zn2629   1.943   1_554  S
O2266     Cd2631   1.963       .  S
O2266     Cd2632   2.055   1_554  S
O2266     Cd2267   1.978       .  S
Cd2267     O2269   2.036       .  S
O2268      C2275   1.286       .  A
C2270      O2274   1.271       .  A
C2270      C2569   1.477       .  S
C2271      C2440   1.450       .  S
O2272     Zn2629   2.048   1_554  S
C2273      C2552   1.469       .  S
C2275      C2483   1.477       .  S
C2276      O2277   1.285       .  A
C2276      C2509   1.471       .  S
O2277     Cd2632   2.147   1_554  S
O2278      C2294   1.272       .  A
O2278     Zn2284   2.046       .  S
C2279      O2295   1.274       .  A
C2279      O2292   1.271       .  A
C2279      C2575   1.471       .  S
O2280      C2293   1.284       .  A
O2280     Cd2287   2.142       .  S
O2281      C2299   1.272       .  A
O2281     Cd2290   2.047       .  S
O2282      C2296   1.271       .  A
O2283      C2294   1.274       .  A
O2283     Cd2286   2.047       .  S
Zn2284     O2297   1.941       .  S
Zn2284     O2289   1.909       .  S
O2285      C2296   1.272       .  A
O2285     Cd2290   2.045       .  S
Cd2286     O2288   2.053       .  S
Cd2286     O2289   1.960       .  S
Cd2287     O2291   2.153       .  S
Cd2287     O2300   2.149       .  S
Cd2287     O2289   2.041       .  S
O2288      C2298   1.270       .  A
Cd2290     O2292   2.088       .  S
O2291      C2298   1.286       .  A
C2293      O2297   1.268       .  A
C2293      C2417   1.468       .  S
C2294      C2477   1.468       .  S
C2296      C2486   1.446       .  S
C2298      C2546   1.478       .  S
C2299      C2414   1.477       .  S
O2301      C2317   1.271       .  A
C2302      O2318   1.268       .  A
C2302      O2315   1.271       .  A
C2302      C2570   1.449       .  S
O2303      C2316   1.282       .  A
O2303     Cd2310   2.141       .  S
O2304      C2322   1.272       .  A
O2304     Cd2313   2.056       .  S
O2305      C2319   1.274       .  A
O2305     Cd2677   2.065       .  S
O2306      C2317   1.273       .  A
O2306     Cd2309   2.097       .  S
Zn2307     O2686   1.991   1_454  S
Zn2307     O2320   1.932   1_455  S
O2308      C2319   1.272       .  A
Cd2309     O2673   2.066   1_554  S
Cd2309     O2311   2.032       .  S
Cd2309     O2312   1.985       .  S
Cd2310     O2323   2.149   1_554  S
O2311      C2321   1.273       .  A
Cd2313     O2315   2.053       .  S
O2314      C2321   1.284       .  A
C2316      O2320   1.265       .  A
C2316      C2409   1.469       .  S
C2317      C2505   1.471       .  S
O2318     Zn2675   1.991   1_655  S
C2319      C2480   1.458       .  S
C2321      C2549   1.472       .  S
C2322      O2691   1.286       .  A
C2322      C2436   1.477       .  S
O2323      C2690   1.286       .  A
O2324      C2340   1.271       .  A
C2325      O2341   1.272       .  A
C2325      O2338   1.267       .  A
C2325      C2411   1.446       .  S
O2326      C2339   1.285       .  A
O2326     Cd2333   2.147       .  S
O2327      C2345   1.265       .  A
O2327     Cd2336   1.992   1_655  S
O2328      C2342   1.273       .  A
O2329      C2340   1.273       .  A
O2329     Cd2332   2.054       .  S
Zn2330     O2343   2.001       .  S
O2331      C2342   1.269       .  A
Cd2332     O2334   2.026       .  S
Cd2332     O2335   1.986       .  S
O2334      C2344   1.273       .  A
Cd2336     O2338   2.026   1_455  S
O2337      C2344   1.283       .  A
C2339      O2343   1.271       .  A
C2339      C2528   1.479       .  S
C2340      C2547   1.452       .  S
C2342      C2459   1.471       .  S
C2344      C2478   1.471       .  S
C2345      O2346   1.283   1_565  A
C2345      C2572   1.469       .  S
O2347      C2363   1.272       .  A
O2347     Zn2353   2.044   1_565  S
C2348      O2364   1.274       .  A
C2348      O2361   1.271       .  A
C2348      C2437   1.471       .  S
O2349      C2730   1.284   1_554  A
O2349     Cd2356   2.143       .  S
O2350      C2368   1.272       .  A
O2350     Cd2359   2.046       .  S
O2351      C2365   1.271       .  A
O2352      C2363   1.274       .  A
O2352     Cd2723   2.048       .  S
Zn2353     O2366   1.939   1_545  S
O2354      C2365   1.272       .  A
O2354     Cd2359   2.044       .  S
Cd2355     O2720   2.047   1_554  S
Cd2355     O2357   2.054       .  S
Cd2356     O2360   2.153       .  S
O2357      C2367   1.270       .  A
O2358     Cd2359   1.989   1_556  S
Cd2359     O2729   2.088   1_554  S
O2360      C2367   1.286       .  A
O2361     Cd2727   2.088       .  S
C2362      O2717   1.284       .  A
C2362      O2366   1.267       .  A
C2362      C2555   1.468       .  S
C2363      C2454   1.468       .  S
C2365      C2532   1.446       .  S
C2367      C2500   1.478       .  S
C2368      O2369   1.285       .  A
C2368      C2529   1.476       .  S
O2370      C2386   1.271       .  A
C2371      O2387   1.272       .  A
C2371      O2384   1.267       .  A
C2371      C2526   1.446       .  S
O2372      C2385   1.285       .  A
O2372     Cd2747   2.147   1_554  S
O2373      C2391   1.265       .  A
O2373     Cd2382   1.991   1_655  S
O2374      C2388   1.273       .  A
O2375      C2386   1.273       .  A
O2375     Cd2378   2.054       .  S
Zn2376     O2389   2.001   1_545  S
O2377      C2388   1.269       .  A
Cd2378     O2748   2.026   1_554  S
Cd2379     O2740   2.147       .  S
O2380      C2390   1.273       .  A
O2380     Cd2746   2.026       .  S
Cd2382     O2752   2.027   1_455  S
O2383      C2390   1.283       .  A
O2384     Cd2750   2.026   1_654  S
C2385      O2389   1.271       .  A
C2385      C2413   1.479       .  S
C2386      C2501   1.452       .  S
C2388      C2482   1.471       .  S
C2390      C2455   1.471       .  S
C2391      O2392   1.283       .  A
C2391      C2434   1.468       .  S
O2393      C2409   1.272       .  A
O2393     Zn2399   2.048       .  S
C2394      O2410   1.274       .  A
C2394      O2407   1.271       .  A
O2395      C2408   1.284       .  A
O2395     Cd2402   2.142       .  S
O2396      C2414   1.272       .  A
O2396     Cd2405   2.047       .  S
O2397      C2411   1.271       .  A
O2397     Cd2401   2.053       .  S
O2398      C2409   1.274       .  A
O2398     Cd2401   2.049       .  S
Zn2399     O2410   1.990       .  S
Zn2399     O2412   1.940       .  S
Zn2399     O2404   1.908       .  S
O2400      C2411   1.272       .  A
O2400     Cd2405   2.043       .  S
Cd2401     O2403   2.056       .  S
Cd2401     O2404   1.960       .  S
Cd2402     O2406   2.154       .  S
Cd2402     O2415   2.150       .  S
Cd2402     O2404   2.040       .  S
O2403      C2413   1.270       .  A
O2404     Cd2405   1.990       .  S
Cd2405     O2407   2.089       .  S
O2406      C2413   1.286       .  A
C2408      O2412   1.268       .  A
C2414      O2415   1.285       .  A
O2416      C2432   1.274       .  A
O2416     Zn2422   2.003       .  S
C2417      O2433   1.272       .  A
C2417      O2430   1.273       .  A
O2418      C2431   1.285       .  A
O2418     Cd2425   2.155       .  S
O2419      C2437   1.268       .  A
O2419     Cd2428   2.003       .  S
O2420      C2434   1.273       .  A
O2420     Cd2424   2.042       .  S
O2421      C2432   1.270       .  A
O2421     Cd2424   2.042       .  S
Zn2422     O2433   2.047       .  S
Zn2422     O2435   1.983       .  S
Zn2422     O2427   1.941       .  S
O2423      C2434   1.270       .  A
O2423     Cd2428   2.089       .  S
Cd2424     O2426   2.036       .  S
Cd2424     O2427   1.965       .  S
Cd2425     O2429   2.158       .  S
Cd2425     O2438   2.146       .  S
Cd2425     O2427   2.054       .  S
O2426      C2436   1.268       .  A
O2427     Cd2428   1.978       .  S
Cd2428     O2430   2.038       .  S
O2429      C2436   1.286       .  A
C2431      O2435   1.270       .  A
C2437      O2438   1.286       .  A
O2439      C2455   1.271       .  A
O2439     Zn2445   1.984       .  S
C2440      O2456   1.268       .  A
C2440      O2453   1.272       .  A
O2441      C2454   1.282       .  A
O2441     Cd2448   2.139       .  S
O2442      C2460   1.271       .  A
O2442     Cd2451   2.055       .  S
O2443      C2457   1.274       .  A
O2443     Cd2447   2.065       .  S
O2444      C2455   1.273       .  A
O2444     Cd2447   2.096       .  S
Zn2445     O2456   1.992       .  S
Zn2445     O2458   1.932       .  S
Zn2445     O2450   1.890       .  S
O2446      C2457   1.272       .  A
O2446     Cd2451   2.061       .  S
Cd2447     O2449   2.030       .  S
Cd2447     O2450   1.985       .  S
Cd2448     O2452   2.133       .  S
Cd2448     O2461   2.149       .  S
Cd2448     O2450   2.040       .  S
O2449      C2459   1.273       .  A
O2450     Cd2451   1.966       .  S
Cd2451     O2453   2.054       .  S
O2452      C2459   1.284       .  A
C2454      O2458   1.265       .  A
C2460      O2461   1.286       .  A
O2462      C2478   1.271       .  A
O2462     Zn2468   1.984       .  S
C2463      O2479   1.268       .  A
C2463      O2476   1.271       .  A
O2464      C2477   1.282       .  A
O2464     Cd2471   2.139       .  S
O2465      C2483   1.272       .  A
O2465     Cd2474   2.056       .  S
O2466      C2480   1.274       .  A
O2466     Cd2470   2.064       .  S
O2467      C2478   1.273       .  A
O2467     Cd2470   2.095       .  S
Zn2468     O2479   1.992       .  S
Zn2468     O2481   1.932       .  S
Zn2468     O2473   1.889       .  S
O2469      C2480   1.272       .  A
O2469     Cd2474   2.059       .  S
Cd2470     O2472   2.030       .  S
Cd2470     O2473   1.986       .  S
Cd2471     O2475   2.132       .  S
Cd2471     O2484   2.149       .  S
Cd2471     O2473   2.041       .  S
O2472      C2482   1.273       .  A
O2473     Cd2474   1.967       .  S
Cd2474     O2476   2.054       .  S
O2475      C2482   1.284       .  A
C2477      O2481   1.265       .  A
C2483      O2484   1.286       .  A
O2485      C2501   1.271       .  A
O2485     Zn2491   1.998       .  S
C2486      O2502   1.272       .  A
C2486      O2499   1.267       .  A
O2487      C2500   1.284       .  A
O2487     Cd2494   2.145       .  S
O2488      C2506   1.265       .  A
O2488     Cd2497   1.990       .  S
O2489      C2503   1.273       .  A
O2489     Cd2493   2.106       .  S
O2490      C2501   1.273       .  A
O2490     Cd2493   2.054       .  S
Zn2491     O2502   2.006       .  S
Zn2491     O2504   2.001       .  S
Zn2491     O2496   1.923       .  S
O2492      C2503   1.269       .  A
O2492     Cd2497   2.035       .  S
Cd2493     O2495   2.029       .  S
Cd2493     O2496   1.986       .  S
Cd2494     O2498   2.130       .  S
Cd2494     O2507   2.144       .  S
Cd2494     O2496   2.043       .  S
O2495      C2505   1.273       .  A
O2496     Cd2497   1.948       .  S
Cd2497     O2499   2.027       .  S
O2498      C2505   1.283       .  A
C2500      O2504   1.271       .  A
C2506      O2507   1.283       .  A
O2508      C2524   1.272       .  A
O2508     Zn2514   2.047       .  S
C2509      O2525   1.274       .  A
C2509      O2522   1.271       .  A
O2510      C2523   1.284       .  A
O2510     Cd2517   2.142       .  S
O2511      C2529   1.272       .  A
O2511     Cd2520   2.046       .  S
O2512      C2526   1.271       .  A
O2512     Cd2516   2.052       .  S
O2513      C2524   1.274       .  A
O2513     Cd2516   2.047       .  S
Zn2514     O2525   1.990       .  S
Zn2514     O2527   1.939       .  S
Zn2514     O2519   1.908       .  S
O2515      C2526   1.272       .  A
O2515     Cd2520   2.043       .  S
Cd2516     O2518   2.054       .  S
Cd2516     O2519   1.960       .  S
Cd2517     O2521   2.154       .  S
Cd2517     O2530   2.150       .  S
Cd2517     O2519   2.040       .  S
O2518      C2528   1.270       .  A
O2519     Cd2520   1.990       .  S
Cd2520     O2522   2.088       .  S
O2521      C2528   1.286       .  A
C2523      O2527   1.268       .  A
C2529      O2530   1.285       .  A
O2531      C2547   1.271       .  A
O2531     Zn2537   1.998       .  S
C2532      O2548   1.272       .  A
C2532      O2545   1.267       .  A
O2533      C2546   1.285       .  A
O2533     Cd2540   2.145       .  S
O2534      C2552   1.265       .  A
O2534     Cd2543   1.989       .  S
O2535      C2549   1.273       .  A
O2535     Cd2539   2.104       .  S
O2536      C2547   1.273       .  A
O2536     Cd2539   2.055       .  S
Zn2537     O2548   2.007       .  S
Zn2537     O2550   2.002       .  S
Zn2537     O2542   1.922       .  S
O2538      C2549   1.269       .  A
O2538     Cd2543   2.035       .  S
Cd2539     O2541   2.029       .  S
Cd2539     O2542   1.985       .  S
Cd2540     O2544   2.130       .  S
Cd2540     O2553   2.143       .  S
Cd2540     O2542   2.043       .  S
O2541      C2551   1.273       .  A
O2542     Cd2543   1.948       .  S
Cd2543     O2545   2.026       .  S
O2544      C2551   1.283       .  A
C2546      O2550   1.271       .  A
C2552      O2553   1.283       .  A
O2554      C2570   1.274       .  A
O2554     Zn2560   2.001       .  S
C2555      O2571   1.272       .  A
C2555      O2568   1.273       .  A
O2556      C2569   1.285       .  A
O2556     Cd2563   2.154       .  S
O2557      C2575   1.268       .  A
O2557     Cd2566   2.003       .  S
O2558      C2572   1.273       .  A
O2558     Cd2562   2.042       .  S
O2559      C2570   1.270       .  A
O2559     Cd2562   2.042       .  S
Zn2560     O2571   2.046       .  S
Zn2560     O2573   1.982       .  S
Zn2560     O2565   1.942       .  S
O2561      C2572   1.270       .  A
O2561     Cd2566   2.090       .  S
Cd2562     O2564   2.035       .  S
Cd2562     O2565   1.965       .  S
Cd2563     O2567   2.159       .  S
Cd2563     O2576   2.148       .  S
Cd2563     O2565   2.054       .  S
O2564      C2574   1.268       .  A
O2565     Cd2566   1.978       .  S
Cd2566     O2568   2.038       .  S
O2567      C2574   1.286       .  A
C2569      O2573   1.270       .  A
C2575      O2576   1.286       .  A
O2577      C2593   1.274       .  A
O2577     Zn2583   2.003       .  S
C2578      O2594   1.272       .  A
C2578      O2591   1.273       .  A
C2578      C2891   1.468       .  S
O2579      C2592   1.285       .  A
O2579     Cd2586   2.155       .  S
O2580      C2598   1.269       .  A
O2580     Cd2589   2.003       .  S
O2581      C2595   1.273       .  A
O2581     Cd2585   2.043       .  S
O2582      C2593   1.270       .  A
O2582     Cd2585   2.043       .  S
Zn2583     O2594   2.048       .  S
Zn2583     O2596   1.984       .  S
Zn2583     O2588   1.943       .  S
O2584      C2595   1.270       .  A
O2584     Cd2589   2.091       .  S
Cd2585     O2587   2.037       .  S
Cd2585     O2588   1.964       .  S
Cd2586     O2590   2.158       .  S
Cd2586     O2599   2.147       .  S
Cd2586     O2588   2.055       .  S
O2587      C2597   1.268       .  A
O2588     Cd2589   1.980       .  S
Cd2589     O2591   2.037       .  S
O2590      C2597   1.286       .  A
C2592      O2596   1.271       .  A
C2592      C2799   1.478       .  S
C2593      C2831   1.450       .  S
C2595      C2874   1.470       .  S
C2597      C2828   1.477       .  S
C2598      O2599   1.286       .  A
C2598      C2762   1.471       .  S
O2600      C2616   1.271       .  A
C2601      O2617   1.268       .  A
C2601      O2614   1.271       .  A
C2601      C2800   1.450       .  S
O2602      C2615   1.282       .  A
O2602     Cd2609   2.141       .  S
O2603      C2621   1.272       .  A
O2603     Cd2612   2.057       .  S
O2604      C2618   1.274       .  A
O2604     Cd2608   2.067       .  S
O2605      C2616   1.274       .  A
O2605     Cd2608   2.098       .  S
Zn2606     O2617   1.992   1_455  S
Zn2606     O2619   1.932   1_455  S
Zn2606     O2611   1.890       .  S
O2607      C2618   1.272       .  A
Cd2608     O2610   2.032       .  S
Cd2609     O2622   2.149       .  S
Cd2609     O2611   2.042   1_655  S
O2610      C2620   1.273       .  A
O2611     Cd2612   1.968   1_455  S
Cd2612     O2614   2.054       .  S
O2613      C2620   1.284       .  A
C2615      O2619   1.265       .  A
C2615      C2892   1.469       .  S
C2616      C2919   1.472       .  S
C2618      C2825   1.459       .  S
C2620      C2871   1.472       .  S
C2621      O2622   1.286       .  A
C2621      C2942   1.477       .  S
O2623      C2639   1.274       .  A
O2623     Zn2629   2.003       .  S
C2624      O2640   1.272       .  A
C2624      O2637   1.272       .  A
C2624      C2776   1.468       .  S
O2625      C2638   1.285       .  A
O2625     Cd2632   2.153       .  S
O2626      C2644   1.268       .  A
O2626     Cd2635   2.001       .  S
O2627      C2641   1.274       .  A
O2628      C2639   1.270       .  A
O2628     Cd2631   2.043   1_556  S
Zn2629     O2642   1.984       .  S
O2630      C2641   1.270       .  A
O2630     Cd2635   2.088       .  S
Cd2631     O2633   2.039   1_554  S
Cd2632     O2636   2.157       .  S
O2633      C2643   1.269       .  A
O2634     Cd2635   1.979       .  S
Cd2635     O2637   2.036       .  S
O2636      C2643   1.285       .  A
C2638      O2642   1.271       .  A
C2638      C2937   1.477       .  S
C2639      C2808   1.450       .  S
C2641      C2920   1.469       .  S
C2643      C2851   1.477       .  S
C2644      O2645   1.286       .  A
C2644      C2877   1.471       .  S
O2646      C2662   1.272       .  A
O2646     Zn2652   2.046       .  S
C2647      O2663   1.274       .  A
C2647      O2660   1.271       .  A
C2647      C2943   1.471       .  S
O2648      C2661   1.284       .  A
O2648     Cd2655   2.143       .  S
O2649      C2667   1.273       .  A
O2649     Cd2658   2.047       .  S
O2650      C2664   1.271       .  A
O2651      C2662   1.274       .  A
O2651     Cd2654   2.047       .  S
Zn2652     O2665   1.941       .  S
Zn2652     O2657   1.909       .  S
O2653      C2664   1.272       .  A
O2653     Cd2658   2.045       .  S
Cd2654     O2656   2.053       .  S
Cd2654     O2657   1.960       .  S
Cd2655     O2659   2.153       .  S
Cd2655     O2668   2.149       .  S
Cd2655     O2657   2.041       .  S
O2656      C2666   1.270       .  A
Cd2658     O2660   2.088       .  S
O2659      C2666   1.286       .  A
C2661      O2665   1.268       .  A
C2661      C2785   1.468       .  S
C2662      C2845   1.468       .  S
C2664      C2854   1.446       .  S
C2666      C2914   1.478       .  S
C2667      C2782   1.477       .  S
O2669      C2685   1.271       .  A
C2670      O2686   1.268       .  A
C2670      O2683   1.271       .  A
C2670      C2938   1.449       .  S
O2671      C2684   1.282       .  A
O2671     Cd2678   2.141       .  S
O2672      C2690   1.272       .  A
O2672     Cd2681   2.057       .  S
O2673      C2687   1.274       .  A
O2674      C2685   1.273       .  A
O2674     Cd2677   2.097       .  S
Zn2675     O2688   1.933   1_455  S
O2676      C2687   1.272       .  A
Cd2677     O2679   2.032       .  S
Cd2677     O2680   1.985       .  S
Cd2678     O2691   2.149       .  S
O2679      C2689   1.273       .  A
Cd2681     O2683   2.053       .  S
O2682      C2689   1.284       .  A
C2684      O2688   1.265       .  A
C2684      C2777   1.469       .  S
C2685      C2873   1.471       .  S
C2687      C2848   1.458       .  S
C2689      C2917   1.472       .  S
C2690      C2804   1.477       .  S
O2692      C2708   1.271       .  A
C2693      O2709   1.272       .  A
C2693      O2706   1.267       .  A
C2693      C2779   1.446       .  S
O2694      C2707   1.285       .  A
O2694     Cd2701   2.147       .  S
O2695      C2713   1.265       .  A
O2695     Cd2704   1.991   1_655  S
O2696      C2710   1.273       .  A
O2697      C2708   1.273       .  A
O2697     Cd2700   2.054       .  S
Zn2698     O2711   2.001       .  S
O2699      C2710   1.270       .  A
Cd2700     O2702   2.026       .  S
Cd2700     O2703   1.986       .  S
O2702      C2712   1.273       .  A
Cd2704     O2706   2.026   1_455  S
O2705      C2712   1.283       .  A
C2707      O2711   1.271       .  A
C2707      C2896   1.479       .  S
C2708      C2915   1.452       .  S
C2710      C2827   1.471       .  S
C2712      C2846   1.471       .  S
C2713      O2714   1.283   1_565  A
C2713      C2940   1.469       .  S
O2715      C2731   1.272       .  A
O2715     Zn2721   2.044   1_565  S
C2716      O2732   1.274       .  A
C2716      O2729   1.271       .  A
C2716      C2805   1.471       .  S
O2717     Cd2724   2.143       .  S
O2718      C2736   1.272       .  A
O2718     Cd2727   2.047       .  S
O2719      C2733   1.271       .  A
O2720      C2731   1.274       .  A
Zn2721     O2734   1.940   1_545  S
O2722      C2733   1.272       .  A
O2722     Cd2727   2.045       .  S
Cd2723     O2725   2.054       .  S
Cd2724     O2728   2.153       .  S
O2725      C2735   1.270       .  A
O2726     Cd2727   1.989       .  S
O2728      C2735   1.286       .  A
C2730      O2734   1.267       .  A
C2730      C2923   1.468       .  S
C2731      C2822   1.468       .  S
C2733      C2900   1.446       .  S
C2735      C2868   1.478       .  S
C2736      O2737   1.285       .  A
C2736      C2897   1.476       .  S
O2738      C2754   1.271       .  A
C2739      O2755   1.272       .  A
C2739      O2752   1.267       .  A
C2739      C2894   1.446       .  S
O2740      C2753   1.285       .  A
O2741      C2759   1.265       .  A
O2741     Cd2750   1.991   1_655  S
O2742      C2756   1.273       .  A
O2743      C2754   1.273       .  A
O2743     Cd2746   2.054       .  S
Zn2744     O2757   2.001   1_545  S
O2745      C2756   1.269       .  A
O2748      C2758   1.273       .  A
O2751      C2758   1.283       .  A
C2753      O2757   1.271       .  A
C2753      C2781   1.479       .  S
C2754      C2869   1.452       .  S
C2756      C2850   1.471       .  S
C2758      C2823   1.471       .  S
C2759      O2760   1.283       .  A
C2759      C2802   1.468       .  S
O2761      C2777   1.272       .  A
O2761     Zn2767   2.048       .  S
C2762      O2778   1.274       .  A
C2762      O2775   1.271       .  A
O2763      C2776   1.284       .  A
O2763     Cd2770   2.142       .  S
O2764      C2782   1.272       .  A
O2764     Cd2773   2.047       .  S
O2765      C2779   1.271       .  A
O2765     Cd2769   2.053       .  S
O2766      C2777   1.274       .  A
O2766     Cd2769   2.048       .  S
Zn2767     O2778   1.991       .  S
Zn2767     O2780   1.940       .  S
Zn2767     O2772   1.908       .  S
O2768      C2779   1.272       .  A
O2768     Cd2773   2.043       .  S
Cd2769     O2771   2.055       .  S
Cd2769     O2772   1.960       .  S
Cd2770     O2774   2.154       .  S
Cd2770     O2783   2.150       .  S
Cd2770     O2772   2.040       .  S
O2771      C2781   1.270       .  A
O2772     Cd2773   1.990       .  S
Cd2773     O2775   2.088       .  S
O2774      C2781   1.286       .  A
C2776      O2780   1.268       .  A
C2782      O2783   1.285       .  A
O2784      C2800   1.274       .  A
O2784     Zn2790   2.003       .  S
C2785      O2801   1.272       .  A
C2785      O2798   1.273       .  A
O2786      C2799   1.285       .  A
O2786     Cd2793   2.155       .  S
O2787      C2805   1.268       .  A
O2787     Cd2796   2.003       .  S
O2788      C2802   1.273       .  A
O2788     Cd2792   2.042       .  S
O2789      C2800   1.270       .  A
O2789     Cd2792   2.042       .  S
Zn2790     O2801   2.047       .  S
Zn2790     O2803   1.983       .  S
Zn2790     O2795   1.941       .  S
O2791      C2802   1.270       .  A
O2791     Cd2796   2.090       .  S
Cd2792     O2794   2.036       .  S
Cd2792     O2795   1.965       .  S
Cd2793     O2797   2.158       .  S
Cd2793     O2806   2.147       .  S
Cd2793     O2795   2.054       .  S
O2794      C2804   1.268       .  A
O2795     Cd2796   1.978       .  S
Cd2796     O2798   2.038       .  S
O2797      C2804   1.286       .  A
C2799      O2803   1.270       .  A
C2805      O2806   1.286       .  A
O2807      C2823   1.271       .  A
O2807     Zn2813   1.984       .  S
C2808      O2824   1.268       .  A
C2808      O2821   1.272       .  A
O2809      C2822   1.282       .  A
O2809     Cd2816   2.139       .  S
O2810      C2828   1.271       .  A
O2810     Cd2819   2.055       .  S
O2811      C2825   1.274       .  A
O2811     Cd2815   2.065       .  S
O2812      C2823   1.273       .  A
O2812     Cd2815   2.095       .  S
Zn2813     O2824   1.992       .  S
Zn2813     O2826   1.932       .  S
Zn2813     O2818   1.890       .  S
O2814      C2825   1.272       .  A
O2814     Cd2819   2.061       .  S
Cd2815     O2817   2.030       .  S
Cd2815     O2818   1.985       .  S
Cd2816     O2820   2.133       .  S
Cd2816     O2829   2.149       .  S
Cd2816     O2818   2.041       .  S
O2817      C2827   1.273       .  A
O2818     Cd2819   1.966       .  S
Cd2819     O2821   2.054       .  S
O2820      C2827   1.284       .  A
C2822      O2826   1.265       .  A
C2828      O2829   1.286       .  A
O2830      C2846   1.271       .  A
O2830     Zn2836   1.984       .  S
C2831      O2847   1.268       .  A
C2831      O2844   1.271       .  A
O2832      C2845   1.282       .  A
O2832     Cd2839   2.139       .  S
O2833      C2851   1.272       .  A
O2833     Cd2842   2.056       .  S
O2834      C2848   1.274       .  A
O2834     Cd2838   2.064       .  S
O2835      C2846   1.273       .  A
O2835     Cd2838   2.095       .  S
Zn2836     O2847   1.992       .  S
Zn2836     O2849   1.932       .  S
Zn2836     O2841   1.889       .  S
O2837      C2848   1.272       .  A
O2837     Cd2842   2.059       .  S
Cd2838     O2840   2.030       .  S
Cd2838     O2841   1.986       .  S
Cd2839     O2843   2.132       .  S
Cd2839     O2852   2.149       .  S
Cd2839     O2841   2.041       .  S
O2840      C2850   1.273       .  A
O2841     Cd2842   1.967       .  S
Cd2842     O2844   2.054       .  S
O2843      C2850   1.284       .  A
C2845      O2849   1.265       .  A
C2851      O2852   1.286       .  A
O2853      C2869   1.271       .  A
O2853     Zn2859   1.998       .  S
C2854      O2870   1.272       .  A
C2854      O2867   1.267       .  A
O2855      C2868   1.284       .  A
O2855     Cd2862   2.145       .  S
O2856      C2874   1.265       .  A
O2856     Cd2865   1.990       .  S
O2857      C2871   1.273       .  A
O2857     Cd2861   2.105       .  S
O2858      C2869   1.273       .  A
O2858     Cd2861   2.054       .  S
Zn2859     O2870   2.006       .  S
Zn2859     O2872   2.002       .  S
Zn2859     O2864   1.923       .  S
O2860      C2871   1.269       .  A
O2860     Cd2865   2.036       .  S
Cd2861     O2863   2.029       .  S
Cd2861     O2864   1.985       .  S
Cd2862     O2866   2.130       .  S
Cd2862     O2875   2.143       .  S
Cd2862     O2864   2.043       .  S
O2863      C2873   1.273       .  A
O2864     Cd2865   1.948       .  S
Cd2865     O2867   2.027       .  S
O2866      C2873   1.283       .  A
C2868      O2872   1.271       .  A
C2874      O2875   1.283       .  A
O2876      C2892   1.272       .  A
O2876     Zn2882   2.047       .  S
C2877      O2893   1.274       .  A
C2877      O2890   1.271       .  A
O2878      C2891   1.284       .  A
O2878     Cd2885   2.142       .  S
O2879      C2897   1.272       .  A
O2879     Cd2888   2.046       .  S
O2880      C2894   1.271       .  A
O2880     Cd2884   2.052       .  S
O2881      C2892   1.274       .  A
O2881     Cd2884   2.047       .  S
Zn2882     O2893   1.990       .  S
Zn2882     O2895   1.939       .  S
Zn2882     O2887   1.908       .  S
O2883      C2894   1.272       .  A
O2883     Cd2888   2.043       .  S
Cd2884     O2886   2.054       .  S
Cd2884     O2887   1.960       .  S
Cd2885     O2889   2.154       .  S
Cd2885     O2898   2.150       .  S
Cd2885     O2887   2.040       .  S
O2886      C2896   1.270       .  A
O2887     Cd2888   1.990       .  S
Cd2888     O2890   2.088       .  S
O2889      C2896   1.286       .  A
C2891      O2895   1.268       .  A
C2897      O2898   1.285       .  A
O2899      C2915   1.271       .  A
O2899     Zn2905   1.998       .  S
C2900      O2916   1.272       .  A
C2900      O2913   1.267       .  A
O2901      C2914   1.285       .  A
O2901     Cd2908   2.146       .  S
O2902      C2920   1.265       .  A
O2902     Cd2911   1.988       .  S
O2903      C2917   1.273       .  A
O2903     Cd2907   2.104       .  S
O2904      C2915   1.273       .  A
O2904     Cd2907   2.055       .  S
Zn2905     O2916   2.007       .  S
Zn2905     O2918   2.002       .  S
Zn2905     O2910   1.922       .  S
O2906      C2917   1.269       .  A
O2906     Cd2911   2.036       .  S
Cd2907     O2909   2.029       .  S
Cd2907     O2910   1.985       .  S
Cd2908     O2912   2.131       .  S
Cd2908     O2921   2.143       .  S
Cd2908     O2910   2.044       .  S
O2909      C2919   1.273       .  A
O2910     Cd2911   1.948       .  S
Cd2911     O2913   2.026       .  S
O2912      C2919   1.283       .  A
C2914      O2918   1.271       .  A
C2920      O2921   1.283       .  A
O2922      C2938   1.274       .  A
O2922     Zn2928   2.001       .  S
C2923      O2939   1.272       .  A
C2923      O2936   1.273       .  A
O2924      C2937   1.285       .  A
O2924     Cd2931   2.154       .  S
O2925      C2943   1.268       .  A
O2925     Cd2934   2.002       .  S
O2926      C2940   1.273       .  A
O2926     Cd2930   2.042       .  S
O2927      C2938   1.270       .  A
O2927     Cd2930   2.042       .  S
Zn2928     O2939   2.046       .  S
Zn2928     O2941   1.982       .  S
Zn2928     O2933   1.942       .  S
O2929      C2940   1.270       .  A
O2929     Cd2934   2.090       .  S
Cd2930     O2932   2.035       .  S
Cd2930     O2933   1.965       .  S
Cd2931     O2935   2.159       .  S
Cd2931     O2944   2.148       .  S
Cd2931     O2933   2.054       .  S
O2932      C2942   1.268       .  A
O2933     Cd2934   1.978       .  S
Cd2934     O2936   2.038       .  S
O2935      C2942   1.286       .  A
C2937      O2941   1.270       .  A
C2943      O2944   1.286       .  A
