geometry optimzed in LAMMPS
_audit_creation_date              2020-11-30 
_audit_creation_method            'lammps2cif' 
_symmetry_space_group_name_H-M    'P1' 
_symmetry_Int_Tables_number       1 
_symmetry_cell_setting            triclinic 
loop_ 
_symmetry_equiv_pos_as_xyz 
  x,y,z 
_cell_length_a                    49.68765457 
_cell_length_b                    49.69878426981651 
_cell_length_c                    49.7004792181815 
_cell_angle_alpha                 90.04823752807233 
_cell_angle_beta                  90.0181333517283 
_cell_angle_gamma                 89.97918437174256 
loop_ 
_atom_site_label 
_atom_site_type_symbol 
_atom_site_fract_x 
_atom_site_fract_y 
_atom_site_fract_z 
_atom_site_charge 
Fe1        Fe  0.84065553  0.29889001  0.84251581     1.65800
Fe2        Fe  0.88842636  0.28391970  0.88990411     1.73200
Fe3        Fe  0.87358919  0.35012740  0.87508166     1.54400
O4          O  0.87526611  0.35886429  0.83413856    -0.80100
O5          O  0.88277293  0.30367483  0.92596220    -0.78400
O6          O  0.85334868  0.32551429  0.81359091    -0.82600
O7          O  0.81173423  0.32522350  0.85589352    -0.77500
O8          O  0.91520287  0.34630631  0.87434185    -0.79200
O9          O  0.85498907  0.26086950  0.89912637    -0.82000
C10         C  0.81151091  0.34749363  0.86823650     0.98800
C11         C  0.86623801  0.34745338  0.81312361     1.06200
O12         O  0.86757640  0.31100459  0.86919167    -1.11000
O13         O  0.89687783  0.26043625  0.85652361    -0.73400
O14         O  0.86606134  0.27092875  0.82563474    -0.76900
O15         O  0.83268606  0.35912475  0.87656498    -0.77600
C16         C  0.88639351  0.25772982  0.83343513     0.97700
O17         O  0.82433588  0.27059317  0.86783138    -0.75500
O18         O  0.92452026  0.30331033  0.88341923    -0.80700
C19         C  0.87683405  0.32739578  0.93318402     1.00300
C20         C  0.93170107  0.32712183  0.87786174     1.06200
O21         O  0.87268819  0.34645934  0.91670595    -0.76400
C22         C  0.83204261  0.25779851  0.88843514     1.04500
Fe23       Fe  0.69923040  0.15781961  0.84138432     1.65800
Fe24       Fe  0.71418604  0.11026672  0.88891674     1.73200
Fe25       Fe  0.64796423  0.12526219  0.87423219     1.54400
O26         O  0.63926715  0.16622181  0.87615852    -0.80100
O27         O  0.69439625  0.07430504  0.88315141    -0.78400
O28         O  0.67252333  0.18671642  0.85409977    -0.82600
O29         O  0.67295129  0.14446803  0.81240604    -0.77500
O30         O  0.65184081  0.12578874  0.91586595    -0.79200
O31         O  0.73715750  0.10104227  0.85545881    -0.82000
C32         C  0.65061614  0.13225734  0.81215988     0.98800
C33         C  0.65063165  0.18721754  0.86707700     1.06200
O34         O  0.68709528  0.13109650  0.86819590    -1.11000
O35         O  0.73770395  0.14354470  0.89746089    -0.73400
O36         O  0.72710889  0.17465034  0.86692610    -0.76900
O37         O  0.63892296  0.12401012  0.83332105    -0.77600
C38         C  0.74034134  0.16670899  0.88717879     0.97700
O39         O  0.72762378  0.13254613  0.82500367    -0.75500
O40         O  0.69488741  0.11671502  0.92501882    -0.80700
C41         C  0.67069880  0.06712164  0.87711622     1.00300
C42         C  0.67109241  0.12223780  0.93228916     1.06200
O43         O  0.65161461  0.08362176  0.87304291    -0.76400
C44         C  0.74032049  0.11182855  0.83259998     1.04500
Fe45       Fe  0.84106842  0.15747555  0.70053387     1.65800
Fe46       Fe  0.88864334  0.10990822  0.71553650     1.73200
Fe47       Fe  0.87361131  0.12448737  0.64932594     1.54400
O48         O  0.83267744  0.12249664  0.64064082    -0.80100
O49         O  0.92463315  0.11558467  0.69569121    -0.78400
O50         O  0.81221957  0.14493051  0.67368968    -0.82600
O51         O  0.85463517  0.18644129  0.67441900    -0.77500
O52         O  0.87317216  0.08287902  0.65321687    -0.79200
O53         O  0.89788380  0.14341893  0.73850728    -0.82000
C54         C  0.86675678  0.18660189  0.65203868     0.98800
C55         C  0.81170231  0.13178155  0.65189431     1.06200
O56         O  0.86779785  0.13060145  0.68844076    -1.11000
O57         O  0.85531211  0.10149743  0.73906953    -0.73400
O58         O  0.82411890  0.13190283  0.72821519    -0.76900
O59         O  0.87480705  0.16538295  0.64027046    -0.77600
C60         C  0.83208121  0.11173668  0.74155159     0.97700
O61         O  0.86619160  0.17374597  0.72910930    -0.75500
O62         O  0.88218923  0.07373342  0.69625759    -0.80700
C63         C  0.93176205  0.12160749  0.67197750     1.00300
C64         C  0.87672269  0.06645532  0.67244213     1.06200
O65         O  0.91521932  0.12569617  0.65294696    -0.76400
C66         C  0.88695019  0.16621762  0.74178079     1.04500
Fe67       Fe  0.65665550  0.34287582  0.79829968     1.65800
Fe68       Fe  0.60903303  0.39042150  0.78333259     1.73200
Fe69       Fe  0.62375269  0.37547949  0.84953722     1.54400
O70         O  0.62195012  0.33453087  0.85822268    -0.80100
O71         O  0.61495220  0.42644577  0.80307206    -0.78400
O72         O  0.64375297  0.31393276  0.82482263    -0.82600
O73         O  0.68556912  0.35606239  0.82475698    -0.77500
O74         O  0.58215604  0.37484238  0.84568735    -0.79200
O75         O  0.64248003  0.39943831  0.76021579    -0.82000
C76         C  0.68579347  0.36841613  0.84702299     0.98800
C77         C  0.63086852  0.31349038  0.84676920     1.06200
O78         O  0.62979549  0.36961433  0.81041316    -1.11000
O79         O  0.60038752  0.35706798  0.75989053    -0.73400
O80         O  0.63126673  0.32617493  0.77020567    -0.76900
O81         O  0.66462920  0.37684206  0.85859605    -0.77600
C82         C  0.61089593  0.33400158  0.75707808     0.97700
O83         O  0.67315130  0.36820972  0.77010043    -0.75500
O84         O  0.57290426  0.38415138  0.80273619    -0.80700
C85         C  0.62088074  0.43361838  0.82681052     1.00300
C86         C  0.56568680  0.37850219  0.82651257     1.06200
O87         O  0.62480789  0.41710711  0.84589333    -0.76400
C88         C  0.66544012  0.38875643  0.75721019     1.04500
Fe89       Fe  0.79796664  0.34188185  0.65706644     1.65800
Fe90       Fe  0.78337384  0.38951354  0.60948636     1.73200
Fe91       Fe  0.84948192  0.37461973  0.62480636     1.54400
O92         O  0.85797393  0.37645713  0.66580267    -0.80100
O93         O  0.80332230  0.38365596  0.57360562    -0.78400
O94         O  0.82451657  0.35455324  0.68613156    -0.82600
O95         O  0.82426564  0.31285137  0.64385006    -0.77500
O96         O  0.84574299  0.41625182  0.62538175    -0.79200
O97         O  0.76027811  0.35612397  0.60018315    -0.82000
C98         C  0.84662842  0.31255650  0.63169065     0.98800
C99         C  0.84645194  0.36745239  0.68674273     1.06200
O100        O  0.81030187  0.36869200  0.63043148    -1.11000
O101        O  0.75973751  0.39814592  0.64268297    -0.73400
O102        O  0.77002592  0.36744986  0.67373632    -0.76900
O103        O  0.85840018  0.33369313  0.62350252    -0.77600
C104        C  0.75691490  0.38778001  0.66579296     0.97700
O105        O  0.76969121  0.32557145  0.63163056    -0.75500
O106        O  0.80280046  0.42557356  0.61599350    -0.80700
C107        C  0.82706557  0.37761799  0.56655750     1.00300
C108        C  0.82659099  0.43275391  0.62167820     1.06200
O109        O  0.84604970  0.37352752  0.58316262    -0.76400
C110        C  0.75703756  0.33324309  0.61091705     1.04500
Fe111      Fe  0.65626953  0.20114996  0.65691711     1.65800
Fe112      Fe  0.60876771  0.21605611  0.60924705     1.73200
Fe113      Fe  0.62363617  0.14986640  0.62412813     1.54400
O114        O  0.66454942  0.14103775  0.62236421    -0.80100
O115        O  0.57271935  0.19633287  0.61498932    -0.78400
O116        O  0.68512103  0.17430898  0.64436473    -0.82600
O117        O  0.64275992  0.17504610  0.68594374    -0.77500
O118        O  0.62430794  0.15359136  0.58251175    -0.79200
O119        O  0.59956359  0.23919068  0.64266054    -0.82000
C120        C  0.63044885  0.15276760  0.68620993     0.98800
C121        C  0.68556755  0.15236735  0.63145558     1.06200
O122        O  0.62953547  0.18899998  0.63007693    -1.11000
O123        O  0.64213845  0.23950465  0.60074615    -0.73400
O124        O  0.67321017  0.22885538  0.63133571    -0.76900
O125        O  0.62223001  0.14101254  0.66505168    -0.77600
C126        C  0.66531496  0.24209357  0.61107748     0.97700
O127        O  0.63109220  0.22970651  0.67314021    -0.75500
O128        O  0.61524725  0.19658747  0.57317498    -0.80700
C129        C  0.56553460  0.17264360  0.62103694     1.00300
C130        C  0.62081467  0.17275905  0.56600757     1.06200
O131        O  0.58203439  0.15358298  0.62514785    -0.76400
C132        C  0.61040666  0.24244035  0.66550795     1.04500
Fe133      Fe  0.15626089  0.15752588  0.70029052     1.65800
Fe134      Fe  0.10868881  0.11001589  0.71535885     1.73200
Fe135      Fe  0.12357568  0.12458222  0.64912010     1.54400
O136        O  0.12167240  0.16547981  0.64018969    -0.80100
O137        O  0.11454529  0.07388289  0.69578499    -0.78400
O138        O  0.14350138  0.18625791  0.67345864    -0.82600
O139        O  0.18531828  0.14409479  0.67413538    -0.77500
O140        O  0.08193976  0.12514750  0.65283642    -0.79200
O141        O  0.14211831  0.10102027  0.73852316    -0.82000
C142        C  0.18564391  0.13165677  0.65191820     0.98800
C143        C  0.13060305  0.18658168  0.65151245     1.06200
O144        O  0.12949015  0.13068336  0.68823009    -1.11000
O145        O  0.10004373  0.14347352  0.73866666    -0.73400
O146        O  0.13068787  0.17446514  0.72805101    -0.76900
O147        O  0.16451922  0.12324746  0.64024134    -0.77600
C148        C  0.11038402  0.16663508  0.74125253     0.97700
O149        O  0.17262761  0.13243030  0.72881132    -0.75500
O150        O  0.07261569  0.11628817  0.69586675    -0.80700
C151        C  0.12061324  0.06656714  0.67212820     1.00300
C152        C  0.06543777  0.12169003  0.67201780     1.06200
O153        O  0.12471591  0.08297262  0.65299545    -0.76400
C154        C  0.16499533  0.11182871  0.74164982     1.04500
Fe155      Fe  0.29794212  0.15761295  0.84210385     1.65800
Fe156      Fe  0.28275536  0.11012805  0.88964440     1.73200
Fe157      Fe  0.34904665  0.12457722  0.87476058     1.54400
O158        O  0.35783770  0.12273291  0.83382548    -0.80100
O159        O  0.30250608  0.11587764  0.92569309    -0.78400
O160        O  0.32458914  0.14473567  0.81322919    -0.82600
O161        O  0.32433887  0.18647584  0.85548182    -0.77500
O162        O  0.34505313  0.08298556  0.87408886    -0.79200
O163        O  0.25978219  0.14368518  0.89872651    -0.82000
C164        C  0.34658881  0.18665171  0.86786506     0.98800
C165        C  0.34648671  0.13175401  0.81278888     1.06200
O166        O  0.30993853  0.13075210  0.86886035    -1.11000
O167        O  0.25926603  0.10163982  0.85628220    -0.73400
O168        O  0.26994015  0.13223417  0.82526917    -0.76900
O169        O  0.35816978  0.16545152  0.87619385    -0.77600
C170        C  0.25663110  0.11202273  0.83315174     0.97700
O171        O  0.26959304  0.17413426  0.86730775    -0.75500
O172        O  0.30202470  0.07392222  0.88329782    -0.80700
C173        C  0.32626714  0.12169507  0.93288216     1.00300
C174        C  0.32580028  0.06660025  0.87770375     1.06200
O175        O  0.34536072  0.12561883  0.91637944    -0.76400
C176        C  0.25673165  0.16656368  0.88791853     1.04500
Fe177      Fe  0.15601111  0.29930512  0.84144894     1.65800
Fe178      Fe  0.10857124  0.28423521  0.88908806     1.73200
Fe179      Fe  0.12357341  0.35047863  0.87465277     1.54400
O180        O  0.16455338  0.35914096  0.87630841    -0.80100
O181        O  0.07256219  0.30399746  0.88329668    -0.78400
O182        O  0.18504418  0.32572627  0.85442188    -0.82600
O183        O  0.14277027  0.32587084  0.81270232    -0.77500
O184        O  0.12442505  0.34647964  0.91625295    -0.79200
O185        O  0.09945269  0.26122192  0.85556529    -0.82000
C186        C  0.13033239  0.34808579  0.81256561     0.98800
C187        C  0.18555842  0.34765514  0.86735256     1.06200
O188        O  0.12936393  0.31136634  0.86841761    -1.11000
O189        O  0.14193407  0.26078191  0.89760818    -0.73400
O190        O  0.17273814  0.27110698  0.86667367    -0.76900
O191        O  0.12197438  0.35961768  0.83378945    -0.77600
C192        C  0.16497055  0.25797671  0.88704327     0.97700
O193        O  0.13057265  0.27121208  0.82485343    -0.75500
O194        O  0.11491269  0.30352935  0.92528281    -0.80700
C195        C  0.06540052  0.32778265  0.87759612     1.00300
C196        C  0.12069340  0.32724814  0.93262773     1.06200
O197        O  0.08192280  0.34688467  0.87378870    -0.76400
C198        C  0.11003131  0.25831071  0.83255499     1.04500
Fe199      Fe  0.34129885  0.34155961  0.79915855     1.65800
Fe200      Fe  0.38863433  0.38926995  0.78402048     1.73200
Fe201      Fe  0.37391774  0.37463903  0.85028131     1.54400
O202        O  0.33297584  0.37656902  0.85903560    -0.80100
O203        O  0.42470531  0.38366277  0.80373326    -0.78400
O204        O  0.31246394  0.35419261  0.82596402    -0.82600
O205        O  0.35488565  0.31265979  0.82534976    -0.77500
O206        O  0.37340193  0.41626939  0.84640462    -0.79200
O207        O  0.39786904  0.35579914  0.76101181    -0.82000
C208        C  0.36709359  0.31251202  0.84768663     0.98800
C209        C  0.31197601  0.36733478  0.84776693     1.06200
O210        O  0.36797470  0.36851101  0.81118173    -1.11000
O211        O  0.35519148  0.39764773  0.76061319    -0.73400
O212        O  0.32425330  0.36699408  0.77137886    -0.76900
O213        O  0.37522592  0.33374011  0.85937742    -0.77600
C214        C  0.33204303  0.38725160  0.75809637     0.97700
O215        O  0.36648489  0.32525549  0.77066293    -0.75500
O216        O  0.38219358  0.42540919  0.80332634    -0.80700
C217        C  0.43197118  0.37765794  0.82741324     1.00300
C218        C  0.37685166  0.43269279  0.82716019     1.06200
O219        O  0.41553526  0.37349978  0.84651645    -0.76400
C220        C  0.38711900  0.33290331  0.75787921     1.04500
Fe221      Fe  0.19880418  0.34190529  0.65780606     1.65800
Fe222      Fe  0.21438649  0.38936423  0.61039126     1.73200
Fe223      Fe  0.14797755  0.37476507  0.62451143     1.54400
O224        O  0.13907212  0.33385697  0.62252565    -0.80100
O225        O  0.19474572  0.42546853  0.61598121    -0.78400
O226        O  0.17202026  0.31317969  0.64490180    -0.82600
O227        O  0.17242788  0.35550870  0.68656288    -0.77500
O228        O  0.15217611  0.37417593  0.58291192    -0.79200
O229        O  0.23716689  0.39842958  0.64404801    -0.82000
C230        C  0.15018874  0.36791001  0.68663308     0.98800
C231        C  0.15025643  0.31279580  0.63169943     1.06200
O232        O  0.18702732  0.36870113  0.63088290    -1.11000
O233        O  0.23776817  0.35591451  0.60205753    -0.73400
O234        O  0.22673882  0.32486097  0.63248376    -0.76900
O235        O  0.13866007  0.37615627  0.66536652    -0.77600
C236        C  0.24017631  0.33272297  0.61234809     0.97700
O237        O  0.22726199  0.36695425  0.67439800    -0.75500
O238        O  0.19532437  0.38305700  0.57410566    -0.80700
C239        C  0.17101465  0.43278051  0.62174733     1.00300
C240        C  0.17155583  0.37765982  0.56663952     1.06200
O241        O  0.15182716  0.41637906  0.62565597    -0.76400
C242        C  0.24013485  0.38758950  0.66691310     1.04500
Fe243      Fe  0.34090896  0.20036002  0.65735402     1.65800
Fe244      Fe  0.38836102  0.21545308  0.60974077     1.73200
Fe245      Fe  0.37378177  0.14920227  0.62458013     1.54400
O246        O  0.37564073  0.14038988  0.66551250    -0.80100
O247        O  0.38266842  0.19570007  0.57371378    -0.78400
O248        O  0.35370619  0.17365691  0.68617245    -0.82600
O249        O  0.31194971  0.17408016  0.64398133    -0.77500
O250        O  0.41540604  0.15312320  0.62517867    -0.79200
O251        O  0.35480730  0.23837897  0.60061586    -0.82000
C252        C  0.31169481  0.15183287  0.63159440     0.98800
C253        C  0.36663707  0.15173463  0.68657182     1.06200
O254        O  0.36770476  0.18830903  0.63053339    -1.11000
O255        O  0.39687151  0.23896497  0.64307255    -0.73400
O256        O  0.36641270  0.22823284  0.67420532    -0.76900
O257        O  0.33285804  0.14019004  0.62321971    -0.77600
C258        C  0.38660646  0.24153663  0.66626541     0.97700
O259        O  0.32445210  0.22874774  0.63219579    -0.75500
O260        O  0.42452142  0.19616382  0.61610592    -0.80700
C261        C  0.37679597  0.17197615  0.56648016     1.00300
C262        C  0.43181405  0.17237007  0.62160739     1.06200
O263        O  0.37273112  0.15289013  0.58294826    -0.76400
C264        C  0.33195919  0.24148051  0.61148868     1.04500
Fe265      Fe  0.29820257  0.84223304  0.84142118     1.65800
Fe266      Fe  0.28340022  0.88942560  0.88946042     1.73200
Fe267      Fe  0.34956386  0.87482099  0.87413049     1.54400
O268        O  0.35839775  0.83388319  0.87580313    -0.80100
O269        O  0.30296648  0.92553613  0.88371749    -0.78400
O270        O  0.32505239  0.81335546  0.85384470    -0.82600
O271        O  0.32426150  0.85576237  0.81236017    -0.77500
O272        O  0.34607195  0.87415760  0.91574964    -0.79200
O273        O  0.26004218  0.89865602  0.85623677    -0.82000
C274        C  0.34655339  0.86804440  0.81206333     0.98800
C275        C  0.34701866  0.81287888  0.86671250     1.06200
O276        O  0.31041435  0.86884837  0.86835839    -1.11000
O277        O  0.26014983  0.85594679  0.89799558    -0.73400
O278        O  0.27051112  0.82520491  0.86696861    -0.76900
O279        O  0.35832834  0.87625923  0.83320163    -0.77600
C280        C  0.25746520  0.83288557  0.88744261     0.97700
O281        O  0.26967486  0.86752403  0.82537899    -0.75500
O282        O  0.30308540  0.88295680  0.92539658    -0.80700
C283        C  0.32658323  0.93283979  0.87750445     1.00300
C284        C  0.32700083  0.87755905  0.93238967     1.06200
O285        O  0.34569680  0.91643424  0.87317704    -0.76400
C286        C  0.25685659  0.88806559  0.83326239     1.04500
Fe287      Fe  0.15775573  0.69993263  0.84178241     1.65800
Fe288      Fe  0.11012675  0.71494155  0.88926169     1.73200
Fe289      Fe  0.12461902  0.64871924  0.87408126     1.54400
O290        O  0.12260637  0.64017891  0.83310988    -0.80100
O291        O  0.11568076  0.69496889  0.92517819    -0.78400
O292        O  0.14518715  0.67320564  0.81283577    -0.82600
O293        O  0.18664318  0.67367664  0.85530311    -0.77500
O294        O  0.08299888  0.65274111  0.87363951    -0.79200
O295        O  0.14366727  0.73773909  0.89870225    -0.82000
C296        C  0.18674414  0.65122865  0.86728145     0.98800
C297        C  0.13196874  0.65146643  0.81220337     1.06200
O298        O  0.13081155  0.68783680  0.86839472    -1.11000
O299        O  0.10185455  0.73863636  0.85601515    -0.73400
O300        O  0.13228202  0.72777701  0.82485625    -0.76900
O301        O  0.16549391  0.63949430  0.87524358    -0.77600
C302        C  0.11214001  0.74117489  0.83282541     0.97700
O303        O  0.17404660  0.72836735  0.86705703    -0.75500
O304        O  0.07393248  0.69582443  0.88259805    -0.80700
C305        C  0.12177169  0.67125886  0.93227059     1.00300
C306        C  0.06660990  0.67203611  0.87710723     1.06200
O307        O  0.12589075  0.65224513  0.91570205    -0.76400
C308        C  0.16649751  0.74097722  0.88784965     1.04500
Fe309      Fe  0.15720177  0.84196831  0.70039362     1.65800
Fe310      Fe  0.10924441  0.88917587  0.71536889     1.73200
Fe311      Fe  0.12449532  0.87472630  0.64916312     1.54400
O312        O  0.16543081  0.87689094  0.64053731    -0.80100
O313        O  0.07334188  0.88326205  0.69544115    -0.78400
O314        O  0.18603528  0.85480690  0.67371120    -0.82600
O315        O  0.14400991  0.81293430  0.67408997    -0.77500
O316        O  0.12474000  0.91635525  0.65315598    -0.79200
O317        O  0.10021469  0.85558763  0.73824212    -0.82000
C318        C  0.13186387  0.81267042  0.65171410     0.98800
C319        C  0.18646839  0.86783262  0.65186078     1.06200
O320        O  0.13029201  0.86864245  0.68828192    -1.11000
O321        O  0.14242956  0.89781935  0.73902614    -0.73400
O322        O  0.17384391  0.86759774  0.72828673    -0.76900
O323        O  0.12353817  0.83381708  0.64003257    -0.77600
C324        C  0.16569422  0.88770283  0.74163511     0.97700
O325        O  0.13208315  0.82544580  0.72878644    -0.75500
O326        O  0.11549461  0.92540148  0.69618123    -0.80700
C327        C  0.06628379  0.87726043  0.67169224     1.00300
C328        C  0.12103324  0.93274178  0.67241678     1.06200
O329        O  0.08287826  0.87331370  0.65268040    -0.76400
C330        C  0.11127226  0.83284327  0.74145232     1.04500
Fe331      Fe  0.34168510  0.65681983  0.79798228     1.65800
Fe332      Fe  0.38959796  0.60948058  0.78326046     1.73200
Fe333      Fe  0.37465779  0.62460996  0.84938439     1.54400
O334        O  0.37630527  0.66559207  0.85797095    -0.80100
O335        O  0.38393970  0.57350525  0.80313147    -0.78400
O336        O  0.35419182  0.68588964  0.82461856    -0.82600
O337        O  0.31274047  0.64337338  0.82422297    -0.77500
O338        O  0.41626849  0.62536772  0.84564462    -0.79200
O339        O  0.35624201  0.60005423  0.76017281    -0.82000
C340        C  0.31255613  0.63117932  0.84655666     0.98800
C341        C  0.36714815  0.68651486  0.84652597     1.06200
O342        O  0.36867064  0.63028571  0.81023232    -1.11000
O343        O  0.39799515  0.64278761  0.75968428    -0.73400
O344        O  0.36713964  0.67368665  0.77010304    -0.76900
O345        O  0.33376242  0.62311478  0.85830935    -0.77600
C346        C  0.38748838  0.66586513  0.75693833     0.97700
O347        O  0.32552607  0.63137084  0.76963854    -0.75500
O348        O  0.42564141  0.61614490  0.80268798    -0.80700
C349        C  0.37787634  0.56640641  0.82684444     1.00300
C350        C  0.43278640  0.62181951  0.82649169     1.06200
O351        O  0.37373557  0.58298054  0.84584712    -0.76400
C352        C  0.33329959  0.61069967  0.75695953     1.04500
Fe353      Fe  0.34198247  0.79881148  0.65686205     1.65800
Fe354      Fe  0.38974619  0.78398473  0.60944321     1.73200
Fe355      Fe  0.37454683  0.85015616  0.62416875     1.54400
O356        O  0.33358936  0.85882211  0.62228842    -0.80100
O357        O  0.42568462  0.80381081  0.61545748    -0.78400
O358        O  0.31304058  0.82541638  0.64404867    -0.82600
O359        O  0.35513802  0.82515428  0.68588588    -0.77500
O360        O  0.37403065  0.84633592  0.58254801    -0.79200
O361        O  0.39878205  0.76087733  0.64289035    -0.82000
C362        C  0.36740748  0.84745503  0.68619444     0.98800
C363        C  0.31256992  0.84738528  0.63122110     1.06200
O364        O  0.36877850  0.81101087  0.63013771    -1.11000
O365        O  0.35649953  0.76045346  0.60068904    -0.73400
O366        O  0.32535454  0.77084288  0.63129046    -0.76900
O367        O  0.37578693  0.85912554  0.66507983    -0.77600
C368        C  0.33335175  0.75767180  0.61100941     0.97700
O369        O  0.36726016  0.77049485  0.67332968    -0.75500
O370        O  0.38349939  0.80339042  0.57332946    -0.80700
C371        C  0.43276681  0.82756861  0.62139111     1.00300
C372        C  0.37782424  0.82715876  0.56609040     1.06200
O373        O  0.41618423  0.84660887  0.62531429    -0.76400
C374        C  0.38793577  0.75771493  0.66573622     1.04500
Fe375      Fe  0.20126169  0.65720570  0.65657904     1.65800
Fe376      Fe  0.21593294  0.60950714  0.60899355     1.73200
Fe377      Fe  0.14980938  0.62470082  0.62392175     1.54400
O378        O  0.14103313  0.62306264  0.66485473    -0.80100
O379        O  0.19628273  0.61555907  0.57298094    -0.78400
O380        O  0.17464702  0.64446661  0.68551730    -0.82600
O381        O  0.17500284  0.68630779  0.64343109    -0.77500
O382        O  0.15336883  0.58307283  0.62465342    -0.79200
O383        O  0.23927546  0.64280907  0.59999110    -0.82000
C384        C  0.15280290  0.68672179  0.63096488     0.98800
C385        C  0.15255928  0.63182033  0.68591814     1.06200
O386        O  0.18897638  0.63045210  0.62981017    -1.11000
O387        O  0.23927446  0.60067238  0.64232751    -0.73400
O388        O  0.22917033  0.63161098  0.67324089    -0.76900
O389        O  0.14110091  0.66565574  0.62246306    -0.77600
C390        C  0.24213315  0.61113623  0.66540352     0.97700
O391        O  0.22955932  0.67352946  0.63123730    -0.75500
O392        O  0.19625473  0.57352342  0.61524386    -0.80700
C393        C  0.17257639  0.62158704  0.56580125     1.00300
C394        C  0.17243376  0.56647031  0.62095554     1.06200
O395        O  0.15349284  0.62561897  0.58229935    -0.76400
C396        C  0.24238484  0.66576285  0.61066026     1.04500
Fe397      Fe  0.84167408  0.84211677  0.70006918     1.65800
Fe398      Fe  0.88936101  0.88959031  0.71497585     1.73200
Fe399      Fe  0.87454918  0.87459876  0.64879289     1.54400
O400        O  0.87633758  0.83364819  0.64008720    -0.80100
O401        O  0.88353861  0.92557677  0.69523597    -0.78400
O402        O  0.85440147  0.81315522  0.67341988    -0.82600
O403        O  0.81271963  0.85543819  0.67374504    -0.77500
O404        O  0.91615980  0.87393281  0.65259366    -0.79200
O405        O  0.85595238  0.89878737  0.73807122    -0.82000
C406        C  0.81249431  0.86771049  0.65145384     0.98800
C407        C  0.86731280  0.81265403  0.65148941     1.06200
O408        O  0.86854589  0.86878608  0.68792085    -1.11000
O409        O  0.89791681  0.85629273  0.73843826    -0.73400
O410        O  0.86714621  0.82532829  0.72802078    -0.76900
O411        O  0.83366205  0.87597804  0.63979828    -0.77600
C412        C  0.88747722  0.83320572  0.74118669     0.97700
O413        O  0.82531680  0.86746483  0.72840897    -0.75500
O414        O  0.92544872  0.88312994  0.69557532    -0.80700
C415        C  0.87750578  0.93274424  0.67153893     1.00300
C416        C  0.93264320  0.87750115  0.67177981     1.06200
O417        O  0.87347788  0.91623093  0.65245482    -0.76400
C418        C  0.83303134  0.88808899  0.74120210     1.04500
Fe419      Fe  0.84201975  0.70131060  0.84176385     1.65800
Fe420      Fe  0.88979917  0.71589122  0.88926499     1.73200
Fe421      Fe  0.87469301  0.64980197  0.87411325     1.54400
O422        O  0.83374916  0.64116807  0.87614038    -0.80100
O423        O  0.92575136  0.69600689  0.88336071    -0.78400
O424        O  0.81314279  0.67460567  0.85443766    -0.82600
O425        O  0.85517127  0.67517249  0.81254931    -0.77500
O426        O  0.87438337  0.65338840  0.91574603    -0.79200
O427        O  0.89898212  0.73900237  0.85589089    -0.82000
C428        C  0.86736358  0.65282488  0.81211071     0.98800
C429        C  0.81270901  0.65262828  0.86725278     1.06200
O430        O  0.86885869  0.68897509  0.86840138    -1.11000
O431        O  0.85658236  0.73953249  0.89797909    -0.73400
O432        O  0.82534412  0.72910555  0.86748830    -0.76900
O433        O  0.87573263  0.64101657  0.83315860    -0.77600
C434        C  0.83338604  0.74229040  0.88773913     0.97700
O435        O  0.86728403  0.72971136  0.82550617    -0.75500
O436        O  0.88336270  0.69637417  0.92526078    -0.80700
C437        C  0.93287011  0.67234599  0.87707048     1.00300
C438        C  0.87792025  0.67250556  0.93232660     1.06200
O439        O  0.91631167  0.65337192  0.87279744    -0.76400
C440        C  0.88807403  0.74230504  0.83308768     1.04500
Fe441      Fe  0.70097795  0.84232521  0.84214375     1.65800
Fe442      Fe  0.71570780  0.89022839  0.88949090     1.73200
Fe443      Fe  0.64955575  0.87535614  0.87431212     1.54400
O444        O  0.64103205  0.87703814  0.83331449    -0.80100
O445        O  0.69583999  0.88446050  0.92543091    -0.78400
O446        O  0.67441300  0.85489054  0.81305526    -0.82600
O447        O  0.67463779  0.81343270  0.85548256    -0.77500
O448        O  0.65331704  0.91694574  0.87364094    -0.79200
O449        O  0.73888918  0.85686757  0.89879704    -0.82000
C450        C  0.65224988  0.81327740  0.86759484     0.98800
C451        C  0.65250338  0.86784869  0.81240532     1.06200
O452        O  0.68872270  0.86932646  0.86866975    -1.11000
O453        O  0.73922590  0.89871583  0.85618171    -0.73400
O454        O  0.72894532  0.86773008  0.82536119    -0.76900
O455        O  0.64053264  0.83448770  0.87570815    -0.77600
C456        C  0.74203424  0.88814077  0.83314232     0.97700
O457        O  0.72925042  0.82608319  0.86760476    -0.75500
O458        O  0.69624850  0.92630892  0.88298921    -0.80700
C459        C  0.67210163  0.87845898  0.93251827     1.00300
C460        C  0.67244315  0.93346338  0.87730628     1.06200
O461        O  0.65307489  0.87439799  0.91594821    -0.76400
C462        C  0.74203689  0.83388831  0.88819369     1.04500
Fe463      Fe  0.79812417  0.65738271  0.65649410     1.65800
Fe464      Fe  0.78337487  0.60963088  0.60900121     1.73200
Fe465      Fe  0.84952605  0.62454960  0.62409689     1.54400
O466        O  0.85831429  0.66545715  0.62208808    -0.80100
O467        O  0.80314014  0.57362274  0.61490270    -0.78400
O468        O  0.82498474  0.68614673  0.64389975    -0.82600
O469        O  0.82415921  0.64407198  0.68570148    -0.77500
O470        O  0.84591952  0.62489435  0.58246366    -0.79200
O471        O  0.76022354  0.60053910  0.64240031    -0.82000
C472        C  0.84648098  0.63182602  0.68611994     0.98800
C473        C  0.84695260  0.68652231  0.63105129     1.06200
O474        O  0.81036721  0.63049875  0.62984347    -1.11000
O475        O  0.75986336  0.64292335  0.60031106    -0.73400
O476        O  0.77046809  0.67418187  0.63073215    -0.76900
O477        O  0.85829883  0.62347271  0.66505619    -0.77600
C478        C  0.75724594  0.66615850  0.61049954     0.97700
O479        O  0.76956335  0.63228164  0.67272175    -0.75500
O480        O  0.80290832  0.61599287  0.57296987    -0.80700
C481        C  0.82678960  0.56644584  0.62117187     1.00300
C482        C  0.82678988  0.62140919  0.56588819     1.06200
O483        O  0.84582069  0.58295170  0.62539573    -0.76400
C484        C  0.75691764  0.61151315  0.66517991     1.04500
Fe485      Fe  0.65711916  0.65826168  0.79837894     1.65800
Fe486      Fe  0.60956678  0.61065837  0.78346656     1.73200
Fe487      Fe  0.62456823  0.62543938  0.84964748     1.54400
O488        O  0.66550744  0.62349622  0.85831854    -0.80100
O489        O  0.57358819  0.61637200  0.80330055    -0.78400
O490        O  0.68601437  0.64562573  0.82512729    -0.82600
O491        O  0.64369579  0.68727072  0.82459368    -0.77500
O492        O  0.62503933  0.58380839  0.84581797    -0.79200
O493        O  0.60029699  0.64410505  0.76049733    -0.82000
C494        C  0.63150579  0.68751101  0.84693612     0.98800
C495        C  0.68650356  0.63261096  0.84698719     1.06200
O496        O  0.63040091  0.63143201  0.81052357    -1.11000
O497        O  0.64285005  0.60218708  0.75989545    -0.73400
O498        O  0.67398814  0.63270722  0.77053531    -0.76900
O499        O  0.62333486  0.66634565  0.85866112    -0.77600
C500        C  0.66601953  0.61248946  0.75724994     0.97700
O501        O  0.63186817  0.67455110  0.76993690    -0.75500
O502        O  0.61606997  0.57455026  0.80277757    -0.80700
C503        C  0.56643341  0.62247279  0.82699236     1.00300
C504        C  0.62152273  0.56733322  0.82660152     1.06200
O505        O  0.58295492  0.62664010  0.84602793    -0.76400
C506        C  0.61113196  0.66694095  0.75726609     1.04500
Fe507      Fe  0.65754237  0.79868327  0.65628970     1.65800
Fe508      Fe  0.60963452  0.78401956  0.60893659     1.73200
Fe509      Fe  0.62458420  0.85012920  0.62413305     1.54400
O510        O  0.62292773  0.85868162  0.66512519    -0.80100
O511        O  0.61539964  0.80387123  0.57299656    -0.78400
O512        O  0.64508840  0.82532981  0.68537446    -0.82600
O513        O  0.68649896  0.82489889  0.64286439    -0.77500
O514        O  0.58295910  0.84641526  0.62485341    -0.79200
O515        O  0.64296551  0.76084721  0.59956263    -0.82000
C516        C  0.68669029  0.84727441  0.63075085     0.98800
C517        C  0.63213880  0.84724170  0.68602816     1.06200
O518        O  0.63056488  0.81097026  0.62976734    -1.11000
O519        O  0.60113224  0.76052329  0.64224273    -0.73400
O520        O  0.63203079  0.77085378  0.67313065    -0.76900
O521        O  0.66549089  0.85905358  0.62269802    -0.77600
C522        C  0.61162020  0.75777872  0.66532278     0.97700
O523        O  0.67369829  0.77032845  0.63084445    -0.75500
O524        O  0.57359094  0.80348922  0.61550472    -0.80700
C525        C  0.62144519  0.82759156  0.56591687     1.00300
C526        C  0.56643686  0.82728195  0.62121404     1.06200
O527        O  0.62553333  0.84660538  0.58249601    -0.76400
C528        C  0.66591475  0.75762905  0.61019273     1.04500
Fe529      Fe  0.84262252  0.29914110  0.15779017     1.65800
Fe530      Fe  0.89015409  0.28425420  0.11015788     1.73200
Fe531      Fe  0.87518894  0.35043251  0.12501232     1.54400
O532        O  0.83425676  0.35916143  0.12322748    -0.80100
O533        O  0.92615721  0.30399488  0.11601765    -0.78400
O534        O  0.81370108  0.32581001  0.14506933    -0.82600
O535        O  0.85595276  0.32542967  0.18678219    -0.77500
O536        O  0.87450729  0.34664254  0.08338880    -0.79200
O537        O  0.89931270  0.26115696  0.14355069    -0.82000
C538        C  0.86827526  0.34770058  0.18705897     0.98800
C539        C  0.81324000  0.34774963  0.13219001     1.06200
O540        O  0.86934185  0.31130169  0.13097117    -1.11000
O541        O  0.85683291  0.26079840  0.10154988    -0.73400
O542        O  0.82581711  0.27122770  0.13226356    -0.76900
O543        O  0.87658232  0.35937591  0.16592064    -0.77600
C544        C  0.83371034  0.25807091  0.11193202     0.97700
O545        O  0.86792450  0.27077620  0.17413337    -0.75500
O546        O  0.88372826  0.30366541  0.07408783    -0.80700
C547        C  0.93332203  0.32770501  0.12203289     1.00300
C548        C  0.87808034  0.32745252  0.06689739     1.06200
O549        O  0.91680910  0.34677966  0.12606352    -0.76400
C550        C  0.88857027  0.25800429  0.16644219     1.04500
Fe551      Fe  0.79855353  0.34286672  0.34172034     1.65800
Fe552      Fe  0.78381388  0.39035505  0.38948144     1.73200
Fe553      Fe  0.84995863  0.37488976  0.37490129     1.54400
O554        O  0.85836252  0.33388064  0.37666277    -0.80100
O555        O  0.80388402  0.42621361  0.38386638    -0.78400
O556        O  0.82513066  0.31374926  0.35420072    -0.82600
O557        O  0.82488462  0.35628492  0.31285899    -0.77500
O558        O  0.84600680  0.37427261  0.41648798    -0.79200
O559        O  0.76088189  0.39981416  0.35602044    -0.82000
C560        C  0.84735289  0.36825452  0.31278621     0.98800
C561        C  0.84694958  0.31302265  0.36730006     1.06200
O562        O  0.81080038  0.36939210  0.36872296    -1.11000
O563        O  0.76008747  0.35715235  0.39781698    -0.73400
O564        O  0.77064055  0.32607409  0.36717350    -0.76900
O565        O  0.85910132  0.37620265  0.33404658    -0.77600
C566        C  0.75740321  0.33401102  0.38742995     0.97700
O567        O  0.77024269  0.36829295  0.32549296    -0.75500
O568        O  0.80304165  0.38370641  0.42563304    -0.80700
C569        C  0.82766964  0.43318771  0.37792075     1.00300
C570        C  0.82679256  0.37795999  0.43290583     1.06200
O571        O  0.84661757  0.41652677  0.37388483    -0.76400
C572        C  0.75763152  0.38904795  0.33313877     1.04500
Fe573      Fe  0.84218208  0.15683789  0.29798390     1.65800
Fe574      Fe  0.89016933  0.10953866  0.28337227     1.73200
Fe575      Fe  0.87515171  0.12475143  0.34946706     1.54400
O576        O  0.87663947  0.16575339  0.35802375    -0.80100
O577        O  0.88429441  0.07359335  0.30316852    -0.78400
O578        O  0.85467397  0.18598755  0.32453452    -0.82600
O579        O  0.81324915  0.14350176  0.32428467    -0.77500
O580        O  0.91677337  0.12561834  0.34579563    -0.79200
O581        O  0.85690115  0.10026058  0.26005048    -0.82000
C582        C  0.81304953  0.13132188  0.34662502     0.98800
C583        C  0.86750554  0.18665274  0.34651333     1.06200
O584        O  0.86918773  0.13035390  0.31030052    -1.11000
O585        O  0.89878322  0.14287775  0.25997248    -0.73400
O586        O  0.86764569  0.17360903  0.27006286    -0.76900
O587        O  0.83424224  0.12317831  0.35835341    -0.77600
C588        C  0.88816948  0.16588676  0.25711161     0.97700
O589        O  0.82599930  0.13132168  0.26971604    -0.75500
O590        O  0.92619017  0.11599101  0.30294522    -0.80700
C591        C  0.87839803  0.06652099  0.32692827     1.00300
C592        C  0.93332041  0.12183066  0.32671385     1.06200
O593        O  0.87438836  0.08310399  0.34595774    -0.76400
C594        C  0.83389313  0.11078851  0.25689315     1.04500
Fe595      Fe  0.70167550  0.15733877  0.15669553     1.65800
Fe596      Fe  0.71633452  0.10995602  0.10880359     1.73200
Fe597      Fe  0.65021119  0.12474699  0.12416427     1.54400
O598        O  0.64161933  0.12280988  0.16510106    -0.80100
O599        O  0.69634557  0.11585653  0.07290906    -0.78400
O600        O  0.67500680  0.14468045  0.18561223    -0.82600
O601        O  0.67546959  0.18645000  0.14349119    -0.77500
O602        O  0.65400005  0.08313421  0.12459736    -0.79200
O603        O  0.73934989  0.14343146  0.09964854    -0.82000
C604        C  0.65310916  0.18678476  0.13130793     0.98800
C605        C  0.65305842  0.13180706  0.18610161     1.06200
O606        O  0.68938263  0.13066008  0.12986400    -1.11000
O607        O  0.74003745  0.10128647  0.14197632    -0.73400
O608        O  0.72948873  0.13163399  0.17333394    -0.76900
O609        O  0.64132067  0.16567618  0.12302417    -0.77600
C610        C  0.74272695  0.11144321  0.16522049     0.97700
O611        O  0.73007491  0.17367146  0.13148214    -0.75500
O612        O  0.69695421  0.07384968  0.11519630    -0.80700
C613        C  0.67257928  0.12189580  0.06591591     1.00300
C614        C  0.67316804  0.06665317  0.12087401     1.06200
O615        O  0.65363829  0.12593645  0.08256226    -0.76400
C616        C  0.74265789  0.16619443  0.11065419     1.04500
Fe617      Fe  0.65767167  0.34225868  0.20064246     1.65800
Fe618      Fe  0.60989852  0.38974712  0.21530242     1.73200
Fe619      Fe  0.62503132  0.37474030  0.14919578     1.54400
O620        O  0.66596904  0.37670055  0.14055271    -0.80100
O621        O  0.57395667  0.38383316  0.19543584    -0.78400
O622        O  0.68655750  0.35494877  0.17396182    -0.82600
O623        O  0.64447661  0.31310738  0.17446045    -0.77500
O624        O  0.62546491  0.41636814  0.15287767    -0.79200
O625        O  0.60073819  0.35633586  0.23837830    -0.82000
C626        C  0.63224343  0.31272049  0.15213428     0.98800
C627        C  0.68700098  0.36779242  0.15200436     1.06200
O628        O  0.63084464  0.36893288  0.18835411    -1.11000
O629        O  0.64312346  0.39845141  0.23890115    -0.73400
O630        O  0.67436039  0.36796006  0.22844972    -0.76900
O631        O  0.62389377  0.33379767  0.14036041    -0.77600
C632        C  0.66632826  0.38822670  0.24162015     0.97700
O633        O  0.63241971  0.32595465  0.22902813    -0.75500
O634        O  0.61631596  0.42579278  0.19584407    -0.80700
C635        C  0.56684969  0.37765945  0.17174530     1.00300
C636        C  0.62188492  0.43291224  0.17201943     1.06200
O637        O  0.58341106  0.37350747  0.15274868    -0.76400
C638        C  0.61163841  0.33352238  0.24164316     1.04500
Fe639      Fe  0.65810747  0.20081540  0.34180329     1.65800
Fe640      Fe  0.61032043  0.21566331  0.38919459     1.73200
Fe641      Fe  0.62520995  0.14949743  0.37418899     1.54400
O642        O  0.62343466  0.14083443  0.33323614    -0.80100
O643        O  0.61598548  0.19585931  0.42517727    -0.78400
O644        O  0.64556114  0.17409358  0.31283672    -0.82600
O645        O  0.68709129  0.17458920  0.35524575    -0.77500
O646        O  0.58359497  0.15327218  0.37354356    -0.79200
O647        O  0.64369333  0.23874317  0.39852249    -0.82000
C648        C  0.68729986  0.15223391  0.36740300     0.98800
C649        C  0.63258910  0.15220245  0.31228249     1.06200
O650        O  0.63119751  0.18863233  0.36841961    -1.11000
O651        O  0.60186356  0.23916638  0.35588762    -0.73400
O652        O  0.63258255  0.22864370  0.32490586    -0.76900
O653        O  0.66611464  0.14051731  0.37555063    -0.77600
C654        C  0.61226815  0.24184039  0.33277372     0.97700
O655        O  0.67431192  0.22925369  0.36713267    -0.75500
O656        O  0.57426549  0.19627363  0.38262275    -0.80700
C657        C  0.62201255  0.17215568  0.43233959     1.00300
C658        C  0.56709616  0.17245510  0.37706983     1.06200
O659        O  0.62621706  0.15311511  0.41581953    -0.76400
C660        C  0.66658285  0.24197789  0.38779258     1.04500
Fe661      Fe  0.84295235  0.84188681  0.29839787     1.65800
Fe662      Fe  0.89027812  0.88959651  0.28318387     1.73200
Fe663      Fe  0.87582026  0.87480845  0.34946492     1.54400
O664        O  0.83490964  0.87657648  0.35843110    -0.80100
O665        O  0.92645142  0.88389036  0.30270571    -0.78400
O666        O  0.81417093  0.85467093  0.32518161    -0.82600
O667        O  0.85644507  0.81297701  0.32465182    -0.77500
O668        O  0.87511258  0.91641030  0.34568291    -0.79200
O669        O  0.89935091  0.85615396  0.26005966    -0.82000
C670        C  0.86892612  0.81275088  0.34683902     0.98800
C671        C  0.81382298  0.86758963  0.34712073     1.06200
O672        O  0.86970557  0.86878442  0.31037433    -1.11000
O673        O  0.85676737  0.89808003  0.25991431    -0.73400
O674        O  0.82594037  0.86727037  0.27052474    -0.76900
O675        O  0.87731795  0.83392062  0.35843511    -0.77600
C676        C  0.83367055  0.88759603  0.25730927     0.97700
O677        O  0.86813647  0.82550045  0.26995886    -0.75500
O678        O  0.88392540  0.92569177  0.30263521    -0.80700
C679        C  0.93380976  0.87791251  0.32636418     1.00300
C680        C  0.87852434  0.93288849  0.32648706     1.06200
O681        O  0.91743588  0.87380953  0.34553250    -0.76400
C682        C  0.88867049  0.83320531  0.25704578     1.04500
Fe683      Fe  0.84254705  0.70034209  0.15668403     1.65800
Fe684      Fe  0.88987495  0.71562820  0.10900784     1.73200
Fe685      Fe  0.87576570  0.64932322  0.12404666     1.54400
O686        O  0.87779811  0.64063996  0.16497643    -0.80100
O687        O  0.88410368  0.69578194  0.07303477    -0.78400
O688        O  0.85546459  0.67370653  0.18552505    -0.82600
O689        O  0.81374169  0.67391434  0.14327718    -0.77500
O690        O  0.91736132  0.65350709  0.12454048    -0.79200
O691        O  0.85620422  0.73842768  0.09995546    -0.82000
C692        C  0.81365630  0.65159877  0.13101032     0.98800
C693        C  0.86863358  0.65192637  0.18599148     1.06200
O694        O  0.86941841  0.68840552  0.12989094    -1.11000
O695        O  0.89833957  0.73917593  0.14232348    -0.73400
O696        O  0.86794279  0.72833908  0.17349891    -0.76900
O697        O  0.83491174  0.64001778  0.12279075    -0.77600
C698        C  0.88808187  0.74171441  0.16552705     0.97700
O699        O  0.82591936  0.72867421  0.13155233    -0.75500
O700        O  0.92619133  0.69655448  0.11527123    -0.80700
C701        C  0.87832479  0.67199776  0.06590980     1.00300
C702        C  0.93364881  0.67283095  0.12085909     1.06200
O703        O  0.87453850  0.65291835  0.08244334    -0.76400
C704        C  0.83336127  0.74146325  0.11085666     1.04500
Fe705      Fe  0.70065148  0.84223419  0.15717681     1.65800
Fe706      Fe  0.71580304  0.88960859  0.10954429     1.73200
Fe707      Fe  0.64951563  0.87492838  0.12421416     1.54400
O708        O  0.64069311  0.83400446  0.12233492    -0.80100
O709        O  0.69612861  0.92568902  0.11525204    -0.78400
O710        O  0.67388576  0.81342253  0.14444599    -0.82600
O711        O  0.67440670  0.85576199  0.18608099    -0.77500
O712        O  0.65337327  0.87432680  0.08261443    -0.79200
O713        O  0.73885156  0.89876103  0.14302760    -0.82000
C714        C  0.65214097  0.86810761  0.18628483     0.98800
C715        C  0.65201716  0.81297890  0.13141858     1.06200
O716        O  0.68862981  0.86894644  0.13028753    -1.11000
O717        O  0.73919713  0.85616981  0.10107398    -0.73400
O718        O  0.72850822  0.82524253  0.13174526    -0.76900
O719        O  0.64047148  0.87633798  0.16509953    -0.77600
C720        C  0.74177440  0.83304001  0.11147448     0.97700
O721        O  0.72910238  0.86740906  0.17355840    -0.75500
O722        O  0.69643531  0.88322512  0.07341154    -0.80700
C723        C  0.67243180  0.93295984  0.12122250     1.00300
C724        C  0.67259602  0.87781468  0.06616923     1.06200
O725        O  0.65330620  0.91653234  0.12530348    -0.76400
C726        C  0.74193433  0.88801465  0.16592884     1.04500
Fe727      Fe  0.65821487  0.79924963  0.34122484     1.65800
Fe728      Fe  0.61067170  0.78415859  0.38875265     1.73200
Fe729      Fe  0.62558977  0.85040602  0.37425483     1.54400
O730        O  0.66653910  0.85914130  0.37611593    -0.80100
O731        O  0.57464530  0.80386711  0.38286165    -0.78400
O732        O  0.68711204  0.82586918  0.35409724    -0.82600
O733        O  0.64486067  0.82562588  0.31235800    -0.77500
O734        O  0.62618607  0.84650004  0.41584435    -0.79200
O735        O  0.60166594  0.76107227  0.35525451    -0.82000
C736        C  0.63248716  0.84787762  0.31219357     0.98800
C737        C  0.68756972  0.84775913  0.36709396     1.06200
O738        O  0.63147146  0.81129616  0.36810134    -1.11000
O739        O  0.64406052  0.76077093  0.39736202    -0.73400
O740        O  0.67501277  0.77125922  0.36662036    -0.76900
O741        O  0.62419193  0.85948453  0.33339507    -0.77600
C742        C  0.66717235  0.75807646  0.38692874     0.97700
O743        O  0.63297635  0.77093687  0.32470313    -0.75500
O744        O  0.61686882  0.80351880  0.42492891    -0.80700
C745        C  0.56746759  0.82762166  0.37704716     1.00300
C746        C  0.62245300  0.82729386  0.43223970     1.06200
O747        O  0.58396791  0.84672782  0.37318211    -0.76400
C748        C  0.61240294  0.75804874  0.33233453     1.04500
Fe749      Fe  0.80001482  0.65780662  0.34143795     1.65800
Fe750      Fe  0.78483486  0.61021433  0.38885569     1.73200
Fe751      Fe  0.85112518  0.62484492  0.37418188     1.54400
O752        O  0.85997302  0.62298319  0.33326000    -0.80100
O753        O  0.80446006  0.61599385  0.42493533    -0.78400
O754        O  0.82675236  0.64500205  0.31261765    -0.82600
O755        O  0.82632558  0.68670948  0.35487648    -0.77500
O756        O  0.84725544  0.58323925  0.37357558    -0.79200
O757        O  0.76176198  0.64368880  0.39792071    -0.82000
C758        C  0.84857934  0.68691025  0.36724772     0.98800
C759        C  0.84865481  0.63202373  0.31221155     1.06200
O760        O  0.81201961  0.63093428  0.36818021    -1.11000
O761        O  0.76150110  0.60166425  0.35542116    -0.73400
O762        O  0.77210209  0.63238139  0.32450939    -0.76900
O763        O  0.86018644  0.66572770  0.37557651    -0.77600
C764        C  0.75888798  0.61207332  0.33230480     0.97700
O765        O  0.77161060  0.67425580  0.36663347    -0.75500
O766        O  0.80420687  0.57408180  0.38257230    -0.80700
C767        C  0.82816504  0.62190531  0.43221722     1.00300
C768        C  0.82802784  0.56681368  0.37713164     1.06200
O769        O  0.84731395  0.62592582  0.41579710    -0.76400
C770        C  0.75873412  0.66660983  0.38720705     1.04500
Fe771      Fe  0.65865507  0.65728926  0.19967320     1.65800
Fe772      Fe  0.61099650  0.60987254  0.21474838     1.73200
Fe773      Fe  0.62565049  0.62465657  0.14850904     1.54400
O774        O  0.62385987  0.66558845  0.13976413    -0.80100
O775        O  0.61668899  0.57382012  0.19501680    -0.78400
O776        O  0.64581420  0.68618895  0.17306207    -0.82600
O777        O  0.68753605  0.64390181  0.17330793    -0.77500
O778        O  0.58403994  0.62536194  0.15239560    -0.79200
O779        O  0.64449504  0.60070615  0.23775396    -0.82000
C780        C  0.68773839  0.63148928  0.15107695     0.98800
C781        C  0.63283748  0.68662636  0.15116375     1.06200
O782        O  0.63174678  0.63058260  0.18761828    -1.11000
O783        O  0.60252729  0.64325695  0.23820883    -0.73400
O784        O  0.63328790  0.67415861  0.22766941    -0.76900
O785        O  0.66654519  0.62317385  0.13946297    -0.77600
C786        C  0.61298553  0.66635300  0.24088914     0.97700
O787        O  0.67509901  0.63199973  0.22796083    -0.75500
O788        O  0.57485383  0.61629531  0.19541233    -0.80700
C789        C  0.62258991  0.56658261  0.17129735     1.00300
C790        C  0.56759977  0.62183287  0.17161520     1.06200
O791        O  0.62663700  0.58304033  0.15220208    -0.76400
C792        C  0.66743915  0.61140107  0.24078335     1.04500
Fe793      Fe  0.20170926  0.34209469  0.34248140     1.65800
Fe794      Fe  0.21635111  0.38996271  0.38989767     1.73200
Fe795      Fe  0.15023815  0.37502127  0.37467475     1.54400
O796        O  0.14175456  0.37681455  0.33369054    -0.80100
O797        O  0.19638952  0.38432316  0.42583657    -0.78400
O798        O  0.17507893  0.35460204  0.31341329    -0.82600
O799        O  0.17546531  0.31312130  0.35585170    -0.77500
O800        O  0.15397250  0.41662611  0.37409492    -0.79200
O801        O  0.23942365  0.35661196  0.39932837    -0.82000
C802        C  0.15304498  0.31293093  0.36790632     0.98800
C803        C  0.15320457  0.36762386  0.31277524     1.06200
O804        O  0.18940915  0.36904479  0.36904112    -1.11000
O805        O  0.23999514  0.39836744  0.35663515    -0.73400
O806        O  0.22958020  0.36758488  0.32566254    -0.76900
O807        O  0.14126315  0.33412880  0.37596640    -0.77600
C808        C  0.24274059  0.38791555  0.33352968     0.97700
O809        O  0.23005760  0.32594822  0.36792596    -0.75500
O810        O  0.19695046  0.42600041  0.38322995    -0.80700
C811        C  0.17267303  0.37819337  0.43289945     1.00300
C812        C  0.17312940  0.43314175  0.37762604     1.06200
O813        O  0.15371212  0.37397015  0.41629993    -0.76400
C814        C  0.24269483  0.33370204  0.38862963     1.04500
Fe815      Fe  0.34213023  0.34249411  0.20028276     1.65800
Fe816      Fe  0.38986270  0.38993495  0.21510166     1.73200
Fe817      Fe  0.37508652  0.37477859  0.14893614     1.54400
O818        O  0.37696160  0.33381050  0.14037375    -0.80100
O819        O  0.38423117  0.42586459  0.19517539    -0.78400
O820        O  0.35467204  0.31350503  0.17358041    -0.82600
O821        O  0.31316269  0.35593876  0.17403860    -0.77500
O822        O  0.41670302  0.37422418  0.15277502    -0.79200
O823        O  0.35643334  0.39933731  0.23810400    -0.82000
C824        C  0.31298744  0.36798115  0.15162080     0.98800
C825        C  0.36772922  0.31289129  0.15174166     1.06200
O826        O  0.36904355  0.36909257  0.18808076    -1.11000
O827        O  0.39825213  0.35668634  0.23874131    -0.73400
O828        O  0.36764869  0.32561609  0.22813911    -0.76900
O829        O  0.33419344  0.37603568  0.13987635    -0.77600
C830        C  0.38788667  0.33354966  0.24141597     0.97700
O831        O  0.32591308  0.36782516  0.22871710    -0.75500
O832        O  0.42596691  0.38328291  0.19579314    -0.80700
C833        C  0.37815361  0.43297005  0.17146690     1.00300
C834        C  0.43317647  0.37772773  0.17198405     1.06200
O835        O  0.37396360  0.41640795  0.15246229    -0.76400
C836        C  0.33358039  0.38853752  0.24139254     1.04500
Fe837      Fe  0.34272677  0.20140729  0.34207930     1.65800
Fe838      Fe  0.39054098  0.21608107  0.38953624     1.73200
Fe839      Fe  0.37526872  0.14996928  0.37466019     1.54400
O840        O  0.33432450  0.14137883  0.37654266    -0.80100
O841        O  0.42644839  0.19620293  0.38349447    -0.78400
O842        O  0.31374963  0.17487572  0.35491720    -0.82600
O843        O  0.35579199  0.17506098  0.31299435    -0.77500
O844        O  0.37471298  0.15372154  0.41627062    -0.79200
O845        O  0.39959096  0.23922380  0.35610911    -0.82000
C846        C  0.36808510  0.15276257  0.31264144     0.98800
C847        C  0.31329241  0.15289145  0.36771982     1.06200
O848        O  0.36953821  0.18913012  0.36877260    -1.11000
O849        O  0.35734000  0.23964776  0.39833521    -0.73400
O850        O  0.32618233  0.22937884  0.36769778    -0.76900
O851        O  0.37650200  0.14106979  0.33373656    -0.77600
C852        C  0.33418848  0.24247001  0.38802664     0.97700
O853        O  0.36805284  0.22965713  0.32564740    -0.75500
O854        O  0.38422300  0.19662136  0.42562440    -0.80700
C855        C  0.43349035  0.17245091  0.37748136     1.00300
C856        C  0.37844763  0.17285489  0.43278596     1.06200
O857        O  0.41688836  0.15345120  0.37352318    -0.76400
C858        C  0.38874428  0.24239664  0.33325197     1.04500
Fe859      Fe  0.15786338  0.15770227  0.29914629     1.65800
Fe860      Fe  0.11025727  0.11017052  0.28420287     1.73200
Fe861      Fe  0.12517088  0.12500926  0.35040550     1.54400
O862        O  0.16610114  0.12324831  0.35923618    -0.80100
O863        O  0.07423090  0.11606377  0.30389208    -0.78400
O864        O  0.18671045  0.14502667  0.32588549    -0.82600
O865        O  0.14450204  0.18673928  0.32535849    -0.77500
O866        O  0.12586252  0.08337911  0.34661922    -0.79200
O867        O  0.10117158  0.14359360  0.26108448    -0.82000
C868        C  0.13213423  0.18706021  0.34760385     0.98800
C869        C  0.18713668  0.13221539  0.34785801     1.06200
O870        O  0.13107371  0.13094404  0.31128041    -1.11000
O871        O  0.14360362  0.10149460  0.26080185    -0.73400
O872        O  0.17469533  0.13209088  0.27134756    -0.76900
O873        O  0.12377248  0.16594439  0.35929257    -0.77600
C874        C  0.16677765  0.11178615  0.25817004     0.97700
O875        O  0.13267628  0.17404930  0.27069996    -0.75500
O876        O  0.11660184  0.07409952  0.30364133    -0.80700
C877        C  0.06703539  0.12202038  0.32760691     1.00300
C878        C  0.12224794  0.06689733  0.32742602     1.06200
O879        O  0.08353424  0.12602772  0.34670245    -0.76400
C880        C  0.11200574  0.16644522  0.25792567     1.04500
Fe881      Fe  0.29881542  0.15717186  0.15757046     1.65800
Fe882      Fe  0.28391439  0.10940057  0.11014264     1.73200
Fe883      Fe  0.35010606  0.12466867  0.12464761     1.54400
O884        O  0.35869501  0.16561649  0.12276072    -0.80100
O885        O  0.30388700  0.07348229  0.11584865    -0.78400
O886        O  0.32540888  0.18611620  0.14480608    -0.82600
O887        O  0.32516858  0.14393206  0.18650930    -0.77500
O888        O  0.34611010  0.12519978  0.08302364    -0.79200
O889        O  0.26108219  0.10018066  0.14370167    -0.82000
C890        C  0.34750816  0.13171412  0.18673371     0.98800
C891        C  0.34729409  0.18661407  0.13182253     1.06200
O892        O  0.31097312  0.13039017  0.13076891    -1.11000
O893        O  0.26022403  0.14260418  0.10165134    -0.73400
O894        O  0.27087378  0.17386733  0.13205446    -0.76900
O895        O  0.35919081  0.12343139  0.16555853    -0.77600
C896        C  0.25758915  0.16582135  0.11187174     0.97700
O897        O  0.27052285  0.13189473  0.17401589    -0.75500
O898        O  0.30310046  0.11585110  0.07396140    -0.80700
C899        C  0.32767054  0.06643486  0.12174048     1.00300
C900        C  0.32684577  0.12151814  0.06663688     1.06200
O901        O  0.34665494  0.08304589  0.12574678    -0.76400
C902        C  0.25791340  0.11108368  0.16652869     1.04500
Fe903      Fe  0.15817593  0.29882829  0.15692437     1.65800
Fe904      Fe  0.11017386  0.28383474  0.10977181     1.73200
Fe905      Fe  0.12510383  0.35004936  0.12451261     1.54400
O906        O  0.12357354  0.35886029  0.16546268    -0.80100
O907        O  0.11568725  0.30351122  0.07367871    -0.78400
O908        O  0.14572821  0.32560286  0.18587142    -0.82600
O909        O  0.18706588  0.32502324  0.14329900    -0.77500
O910        O  0.08349265  0.34628449  0.12539799    -0.79200
O911        O  0.14352813  0.26071106  0.10039715    -0.82000
C912        C  0.18722394  0.34730385  0.13100943     0.98800
C913        C  0.13278861  0.34751957  0.18641891     1.06200
O914        O  0.13113140  0.31093019  0.13038037    -1.11000
O915        O  0.10187277  0.26044279  0.14321110    -0.73400
O916        O  0.13277653  0.27102470  0.17399955    -0.76900
O917        O  0.16600279  0.35899453  0.12288124    -0.77600
C918        C  0.11241873  0.25781697  0.16627873     0.97700
O919        O  0.17429973  0.27035731  0.13160149    -0.75500
O920        O  0.07413117  0.30327331  0.11641147    -0.80700
C921        C  0.12164736  0.32720165  0.06642373     1.00300
C922        C  0.06697962  0.32710476  0.12196542     1.06200
O923        O  0.12586849  0.34629352  0.08288157    -0.76400
C924        C  0.16648821  0.25755405  0.11102360     1.04500
Fe925      Fe  0.34300362  0.79861612  0.34158661     1.65800
Fe926      Fe  0.39059635  0.78381565  0.38920769     1.73200
Fe927      Fe  0.37565425  0.84996350  0.37426275     1.54400
O928        O  0.37755709  0.85866907  0.33333892    -0.80100
O929        O  0.38466307  0.80357098  0.42521995    -0.78400
O930        O  0.35570412  0.82532321  0.31272019    -0.82600
O931        O  0.31392037  0.82481844  0.35489449    -0.77500
O932        O  0.41727804  0.84625921  0.37374237    -0.79200
O933        O  0.35720704  0.76066315  0.39828106    -0.82000
C934        C  0.31360194  0.84711439  0.36719420     0.98800
C935        C  0.36860353  0.84726005  0.31229608     1.06200
O936        O  0.36976892  0.81082266  0.36837496    -1.11000
O937        O  0.39929113  0.76036512  0.35587515    -0.73400
O938        O  0.36862850  0.77080015  0.32480650    -0.76900
O939        O  0.33472447  0.85884386  0.37551606    -0.77600
C940        C  0.38896267  0.75766764  0.33271621     0.97700
O941        O  0.32668490  0.77020352  0.36680769    -0.75500
O942        O  0.42665449  0.80329483  0.38288491    -0.80700
C943        C  0.37856320  0.82726807  0.43238641     1.00300
C944        C  0.43380172  0.82711196  0.37732863     1.06200
O945        O  0.37449228  0.84631526  0.41587344    -0.76400
C946        C  0.33433677  0.75746851  0.38747275     1.04500
Fe947      Fe  0.15861218  0.84254645  0.29779838     1.65800
Fe948      Fe  0.11117357  0.89030724  0.28294337     1.73200
Fe949      Fe  0.12565270  0.87497685  0.34910950     1.54400
O950        O  0.12383869  0.83401180  0.35764976    -0.80100
O951        O  0.11701119  0.92621422  0.30291620    -0.78400
O952        O  0.14575086  0.81353935  0.32425854    -0.82600
O953        O  0.18751501  0.85568837  0.32426432    -0.77500
O954        O  0.08403888  0.87436679  0.34511712    -0.79200
O955        O  0.14472927  0.89944038  0.26002426    -0.82000
C956        C  0.18772359  0.86794859  0.34658201     0.98800
C957        C  0.13283718  0.81302140  0.34618054     1.06200
O958        O  0.13179358  0.86929970  0.30997591    -1.11000
O959        O  0.10258852  0.85710226  0.25926809    -0.73400
O960        O  0.13316328  0.82594923  0.26972193    -0.76900
O961        O  0.16654579  0.87629033  0.35820919    -0.77600
C962        C  0.11292360  0.83395181  0.25650154     0.97700
O963        O  0.17514224  0.86788253  0.26963078    -0.75500
O964        O  0.07496831  0.88395128  0.30217973    -0.80700
C965        C  0.12280624  0.93324049  0.32672929     1.00300
C966        C  0.06764405  0.87817359  0.32589487     1.06200
O967        O  0.12668885  0.91661258  0.34571307    -0.76400
C968        C  0.16760043  0.88859852  0.25691937     1.04500
Fe969      Fe  0.30044157  0.84179750  0.15667303     1.65800
Fe970      Fe  0.28537723  0.88936820  0.10919677     1.73200
Fe971      Fe  0.35164274  0.87472090  0.12408766     1.54400
O972        O  0.36042174  0.87649041  0.16503047    -0.80100
O973        O  0.30507726  0.88352351  0.07318935    -0.78400
O974        O  0.32707709  0.85461499  0.18557443    -0.82600
O975        O  0.32681248  0.81289706  0.14333306    -0.77500
O976        O  0.34774828  0.91633638  0.12481003    -0.79200
O977        O  0.26230916  0.85589978  0.10008459    -0.82000
C978        C  0.34905735  0.81266089  0.13095985     0.98800
C979        C  0.34901470  0.86751106  0.18604452     1.06200
O980        O  0.31251672  0.86864856  0.12996407    -1.11000
O981        O  0.26196834  0.89796891  0.14255108    -0.73400
O982        O  0.27245881  0.86723311  0.17349380    -0.76900
O983        O  0.36067962  0.83382428  0.12262658    -0.77600
C984        C  0.25927868  0.88756046  0.16565555     0.97700
O985        O  0.27212359  0.82532967  0.13139025    -0.75500
O986        O  0.30474143  0.92548902  0.11554707    -0.80700
C987        C  0.32880919  0.87763941  0.06598434     1.00300
C988        C  0.32851363  0.93276119  0.12119066     1.06200
O989        O  0.34793891  0.87370748  0.08246073    -0.76400
C990        C  0.25927349  0.83297568  0.11078945     1.04500
Fe991      Fe  0.15826743  0.70080974  0.15682584     1.65800
Fe992      Fe  0.11097212  0.71578124  0.10897326     1.73200
Fe993      Fe  0.12550871  0.64957014  0.12407075     1.54400
O994        O  0.16643011  0.64063931  0.12233935    -0.80100
O995        O  0.07482313  0.69627028  0.11478120    -0.78400
O996        O  0.18707400  0.67394219  0.14425206    -0.82600
O997        O  0.14475844  0.67470768  0.18584306    -0.77500
O998        O  0.12613639  0.65314878  0.08244969    -0.79200
O999        O  0.10188353  0.73909929  0.14227440    -0.82000
C1000       C  0.13239463  0.65246428  0.18612789     0.98800
C1001       C  0.18747748  0.65196998  0.13138948     1.06200
O1002       O  0.13156333  0.68869418  0.12993330    -1.11000
O1003       O  0.14448235  0.73900235  0.10039847    -0.73400
O1004       O  0.17528228  0.72854477  0.13132139    -0.76900
O1005       O  0.12408406  0.64075278  0.16498863    -0.77600
C1006       C  0.16756488  0.74166338  0.11091890     0.97700
O1007       O  0.13306717  0.72935345  0.17302758    -0.75500
O1008       O  0.11729238  0.69615189  0.07297246    -0.80700
C1009       C  0.06749869  0.67263562  0.12088063     1.00300
C1010       C  0.12266395  0.67225980  0.06588197     1.06200
O1011       O  0.08389497  0.65349123  0.12507447    -0.76400
C1012       C  0.11254341  0.74224213  0.16521922     1.04500
Fe1013     Fe  0.34334554  0.65772012  0.20013880     1.65800
Fe1014     Fe  0.39082377  0.61000590  0.21500151     1.73200
Fe1015     Fe  0.37570481  0.62467597  0.14883578     1.54400
O1016       O  0.33472848  0.62286301  0.14025699    -0.80100
O1017       O  0.42678776  0.61570499  0.19513924    -0.78400
O1018       O  0.31432582  0.64501212  0.17354508    -0.82600
O1019       O  0.35670690  0.68660715  0.17380285    -0.77500
O1020       O  0.37507316  0.58307984  0.15269331    -0.79200
O1021       O  0.40012014  0.64346475  0.23800769    -0.82000
C1022       C  0.36892386  0.68676202  0.15147360     0.98800
C1023       C  0.31376210  0.63197592  0.15167783     1.06200
O1024       O  0.36997774  0.63077981  0.18796787    -1.11000
O1025       O  0.35752947  0.60157065  0.23856049    -0.73400
O1026       O  0.32654300  0.63231207  0.22810178    -0.76900
O1027       O  0.37707592  0.66554618  0.13978515    -0.77600
C1028       C  0.33441840  0.61200834  0.24128593     0.97700
O1029       O  0.36874082  0.67407098  0.22842636    -0.75500
O1030       O  0.38429868  0.57387418  0.19567356    -0.80700
C1031       C  0.43389950  0.62168515  0.17141270     1.00300
C1032       C  0.37866318  0.56663393  0.17188756     1.06200
O1033       O  0.41733958  0.62572636  0.15238305    -0.76400
C1034       C  0.38941990  0.66639244  0.24114358     1.04500
Fe1035     Fe  0.20172988  0.65727331  0.34124418     1.65800
Fe1036     Fe  0.21647437  0.60972974  0.38886764     1.73200
Fe1037     Fe  0.15032170  0.62492083  0.37402627     1.54400
O1038       O  0.14173678  0.66587850  0.37593254    -0.80100
O1039       O  0.19652979  0.57381559  0.38316294    -0.78400
O1040       O  0.17499873  0.68623755  0.35377045    -0.82600
O1041       O  0.17554743  0.64386691  0.31219922    -0.77500
O1042       O  0.15410846  0.62542795  0.41564312    -0.79200
O1043       O  0.23949272  0.60036206  0.35543961    -0.82000
C1044       C  0.15313466  0.63179657  0.31195298     0.98800
C1045       C  0.15311371  0.68681705  0.36675484     1.06200
O1046       O  0.18948272  0.63061840  0.36806622    -1.11000
O1047       O  0.24013426  0.64295350  0.39734638    -0.73400
O1048       O  0.22951891  0.67410625  0.36685710    -0.76900
O1049       O  0.14134927  0.62369431  0.33311522    -0.77600
C1050       C  0.24278790  0.66612512  0.38706848     0.97700
O1051       O  0.23018806  0.63198260  0.32503417    -0.75500
O1052       O  0.19711819  0.61632860  0.42495431    -0.80700
C1053       C  0.17281326  0.56673304  0.37705919     1.00300
C1054       C  0.17329293  0.62187444  0.43213653     1.06200
O1055       O  0.15382946  0.58330554  0.37286245    -0.76400
C1056       C  0.24280923  0.61122195  0.33262940     1.04500
C1057       C  0.26256487  0.60043960  0.31458111    -0.16900
C1058       C  0.27978508  0.59599585  0.29810742     0.07100
C1059       C  0.29986795  0.59632927  0.27807099     0.09000
C1060       C  0.31632519  0.60118548  0.26095667    -0.17800
C1061       C  0.28779444  0.62808656  0.13944668    -0.16900
C1062       C  0.26450055  0.62833505  0.13247121     0.07100
C1063       C  0.23665808  0.63255480  0.12808784     0.09000
C1064       C  0.21336661  0.63952872  0.12765514    -0.17800
C1065       C  0.14061144  0.62799357  0.28613376    -0.16900
C1066       C  0.13340172  0.62842005  0.26293063     0.07100
C1067       C  0.12888459  0.63290892  0.23518090     0.09000
C1068       C  0.12848877  0.64005227  0.21196510    -0.17800
C1069       C  0.23959285  0.81484838  0.09999147    -0.16900
C1070       C  0.22242834  0.79835544  0.09539298     0.07100
C1071       C  0.20233514  0.77832110  0.09546069     0.09000
C1072       C  0.18579563  0.76123245  0.10013522    -0.17800
C1073       C  0.36152610  0.78683352  0.12702149    -0.16900
C1074       C  0.36853888  0.76356706  0.12736389     0.07100
C1075       C  0.37274452  0.73575942  0.13180951     0.09000
C1076       C  0.37291876  0.71254435  0.13896952    -0.17800
C1077       C  0.10177743  0.76208769  0.18317976    -0.16900
C1078       C  0.09720818  0.77935744  0.19957408     0.07100
C1079       C  0.09733912  0.79948830  0.21957688     0.09000
C1080       C  0.10208440  0.81595244  0.23673206    -0.17800
C1081       C  0.12902205  0.78708708  0.35845294    -0.16900
C1082       C  0.12940715  0.76382978  0.36549611     0.07100
C1083       C  0.13377857  0.73603671  0.36996378     0.09000
C1084       C  0.14079420  0.71276503  0.37045360    -0.17800
C1085       C  0.23963692  0.89843906  0.18377064    -0.16900
C1086       C  0.22249357  0.90334995  0.20019139     0.07100
C1087       C  0.20236857  0.90374265  0.22018245     0.09000
C1088       C  0.18578842  0.89934143  0.23729865    -0.17800
C1089       C  0.37252245  0.85958416  0.28640016    -0.16900
C1090       C  0.37232745  0.86660409  0.26313343     0.07100
C1091       C  0.36820266  0.87098224  0.23528832     0.09000
C1092       C  0.36132895  0.87135899  0.21197276    -0.17800
C1093       C  0.39991957  0.73806473  0.31460426    -0.16900
C1094       C  0.40475107  0.72097532  0.29809637     0.07100
C1095       C  0.40492217  0.70095365  0.27798529     0.09000
C1096       C  0.40031249  0.68448087  0.26080186    -0.17800
C1097       C  0.28774574  0.85955357  0.37105216    -0.16900
C1098       C  0.26452474  0.86672977  0.37071067     0.07100
C1099       C  0.23675354  0.87126496  0.36630061     0.09000
C1100       C  0.21352811  0.87172542  0.35914760    -0.17800
C1101       C  0.26251463  0.68415277  0.39792395    -0.16900
C1102       C  0.27970090  0.70056839  0.40268381     0.07100
C1103       C  0.29979030  0.72059235  0.40282125     0.09000
C1104       C  0.31627365  0.73775351  0.39824712    -0.17800
C1105       C  0.33363649  0.96117818  0.12335925    -0.16900
C1106       C  0.33559213  0.98538806  0.12429689     0.07100
C1107       C  0.33539419  0.01387452  0.12443694     0.09000
C1108       C  0.33311743  0.03806390  0.12371802    -0.17800
C1109       C  0.23791845  0.18385616  0.10093425    -0.16900
C1110       C  0.22083673  0.20033891  0.09602116     0.07100
C1111       C  0.20086403  0.22048829  0.09569480     0.09000
C1112       C  0.18445654  0.23776000  0.10018881    -0.17800
C1113       C  0.12480901  0.96160889  0.33220822    -0.16900
C1114       C  0.12553504  0.98580180  0.33447270     0.07100
C1115       C  0.12538541  0.01429028  0.33462236     0.09000
C1116       C  0.12443082  0.03849485  0.33261332    -0.17800
C1117       C  0.18488116  0.10082105  0.23857694    -0.16900
C1118       C  0.20131551  0.09594348  0.22144398     0.07100
C1119       C  0.22129728  0.09570260  0.20131832     0.09000
C1120       C  0.23836563  0.10025499  0.18473570    -0.17800
C1121       C  0.10168928  0.23820753  0.18448878    -0.16900
C1122       C  0.09696314  0.22110434  0.20098685     0.07100
C1123       C  0.09677554  0.20104997  0.22104145     0.09000
C1124       C  0.10127558  0.18454522  0.23820413    -0.17800
C1125       C  0.28738092  0.14059574  0.37164372    -0.16900
C1126       C  0.26413308  0.13350077  0.37142293     0.07100
C1127       C  0.23632046  0.12897849  0.36722366     0.09000
C1128       C  0.21303214  0.12847832  0.36026334    -0.17800
C1129       C  0.36002795  0.12793719  0.21256000    -0.16900
C1130       C  0.36711178  0.12844224  0.23580542     0.07100
C1131       C  0.37147327  0.13305127  0.26357538     0.09000
C1132       C  0.37183868  0.14028211  0.28678198    -0.17800
C1133       C  0.37614791  0.46135881  0.16617107    -0.16900
C1134       C  0.37541103  0.48556976  0.16419076     0.07100
C1135       C  0.37554501  0.51405227  0.16441579     0.09000
C1136       C  0.37648687  0.53823669  0.16665726    -0.17800
C1137       C  0.37147352  0.28692007  0.13948105    -0.16900
C1138       C  0.37103604  0.26362180  0.13254316     0.07100
C1139       C  0.36661628  0.23580215  0.12827527     0.09000
C1140       C  0.35958655  0.21253662  0.12796560    -0.17800
C1141       C  0.21301818  0.35978387  0.12698219    -0.16900
C1142       C  0.23623655  0.36694682  0.12730971     0.07100
C1143       C  0.26399925  0.37141887  0.13180628     0.09000
C1144       C  0.28719844  0.37181464  0.13904341    -0.17800
C1145       C  0.39868715  0.31551856  0.26117115    -0.16900
C1146       C  0.40352106  0.29917121  0.27839832     0.07100
C1147       C  0.40386238  0.27923381  0.29857373     0.09000
C1148       C  0.39946147  0.26210867  0.31514169    -0.17800
C1149       C  0.16782003  0.46150856  0.37541853    -0.16900
C1150       C  0.16558163  0.48568505  0.37445901     0.07100
C1151       C  0.16542125  0.51415861  0.37431064     0.09000
C1152       C  0.16747051  0.53835947  0.37504224    -0.17800
C1153       C  0.12914602  0.35987911  0.21236211    -0.16900
C1154       C  0.12962558  0.36682556  0.23566068     0.07100
C1155       C  0.13402925  0.37107853  0.26349301     0.09000
C1156       C  0.14099936  0.37140111  0.28678435    -0.17800
C1157       C  0.14051366  0.28713671  0.37176482    -0.16900
C1158       C  0.13327483  0.26394430  0.37144061     0.07100
C1159       C  0.12870838  0.23617528  0.36708819     0.09000
C1160       C  0.12826990  0.21292410  0.36002290    -0.17800
C1161       C  0.31619933  0.26215870  0.39901837    -0.16900
C1162       C  0.29976043  0.27929269  0.40390703     0.07100
C1163       C  0.27965651  0.29930973  0.40413963     0.09000
C1164       C  0.26242479  0.31572700  0.39954908    -0.17800
C1165       C  0.31559687  0.39931582  0.26121621    -0.16900
C1166       C  0.29926246  0.40379851  0.27856234     0.07100
C1167       C  0.27940217  0.40354805  0.29882748     0.09000
C1168       C  0.26238629  0.39874971  0.31540787    -0.17800
C1169       C  0.46228995  0.62378729  0.16612107    -0.16900
C1170       C  0.48649774  0.62467498  0.16409201     0.07100
C1171       C  0.51498788  0.62473707  0.16422820     0.09000
C1172       C  0.53918771  0.62392934  0.16640604    -0.17800
C1173       C  0.73929054  0.60122868  0.31412197    -0.16900
C1174       C  0.72218433  0.59638834  0.29763733     0.07100
C1175       C  0.70210927  0.59611386  0.27758652     0.09000
C1176       C  0.68557711  0.60061047  0.26043821    -0.17800
C1177       C  0.46218375  0.83242247  0.37522412    -0.16900
C1178       C  0.48636851  0.83466852  0.37432056     0.07100
C1179       C  0.51485275  0.83486242  0.37422220     0.09000
C1180       C  0.53906616  0.83286942  0.37499180    -0.17800
C1181       C  0.60169485  0.73832248  0.31420257    -0.16900
C1182       C  0.59721776  0.72111792  0.29771031     0.07100
C1183       C  0.59744330  0.70101381  0.27767386     0.09000
C1184       C  0.60220959  0.68450860  0.26055875    -0.17800
C1185       C  0.68530160  0.73841370  0.39772544    -0.16900
C1186       C  0.70178933  0.72127989  0.40244422     0.07100
C1187       C  0.72186436  0.70122510  0.40255261     0.09000
C1188       C  0.73903631  0.68473291  0.39797172    -0.17800
C1189       C  0.62882315  0.71254062  0.13889846    -0.16900
C1190       C  0.62891238  0.73584146  0.13198663     0.07100
C1191       C  0.63291568  0.76372598  0.12775893     0.09000
C1192       C  0.63971781  0.78706070  0.12749328    -0.17800
C1193       C  0.62845259  0.86037583  0.28641473    -0.16900
C1194       C  0.62858219  0.86750352  0.26319241     0.07100
C1195       C  0.63273273  0.87187789  0.23537289     0.09000
C1196       C  0.63970532  0.87213964  0.21210135    -0.17800
C1197       C  0.96211467  0.66783696  0.12286733    -0.16900
C1198       C  0.98632934  0.66576918  0.12367844     0.07100
C1199       C  0.01482792  0.66564460  0.12369880     0.09000
C1200       C  0.03905221  0.66757574  0.12290779    -0.17800
C1201       C  0.81510080  0.76108473  0.10018828    -0.16900
C1202       C  0.79854750  0.77822802  0.09571938     0.07100
C1203       C  0.77849055  0.79831019  0.09593012     0.09000
C1204       C  0.76139280  0.81483629  0.10068407    -0.17800
C1205       C  0.78789370  0.63900971  0.12703616    -0.16900
C1206       C  0.76464762  0.63191991  0.12727871     0.07100
C1207       C  0.73681760  0.62764907  0.13157079     0.09000
C1208       C  0.71355794  0.62745332  0.13862006    -0.17800
C1209       C  0.87259187  0.63964378  0.21190799    -0.16900
C1210       C  0.87230972  0.63270455  0.23520012     0.07100
C1211       C  0.86802597  0.62843980  0.26304038     0.09000
C1212       C  0.86103808  0.62813750  0.28632184    -0.17800
C1213       C  0.96226787  0.87592331  0.33141909    -0.16900
C1214       C  0.98649904  0.87516370  0.33332203     0.07100
C1215       C  0.01499979  0.87522719  0.33313960     0.09000
C1216       C  0.03920590  0.87608787  0.33099919    -0.17800
C1217       C  0.89889863  0.76140813  0.18361554    -0.16900
C1218       C  0.90369996  0.77855178  0.20007148     0.07100
C1219       C  0.90392604  0.79861771  0.22013206     0.09000
C1220       C  0.89941546  0.81511335  0.23731633    -0.17800
C1221       C  0.76164652  0.89876180  0.18405346    -0.16900
C1222       C  0.77882232  0.90327334  0.20056465     0.07100
C1223       C  0.79890857  0.90308893  0.22061579     0.09000
C1224       C  0.81543546  0.89835364  0.23771248    -0.17800
C1225       C  0.78795141  0.87148356  0.35954399    -0.16900
C1226       C  0.76466240  0.87120641  0.36652320     0.07100
C1227       C  0.73680411  0.86697333  0.37076960     0.09000
C1228       C  0.71349810  0.86005042  0.37102948    -0.17800
C1229       C  0.86109854  0.71270890  0.37117624    -0.16900
C1230       C  0.86823444  0.73593362  0.37084042     0.07100
C1231       C  0.87262272  0.76371545  0.36642260     0.09000
C1232       C  0.87291344  0.78694026  0.35929687    -0.17800
C1233       C  0.53871235  0.16718263  0.37496452    -0.16900
C1234       C  0.51451938  0.16501768  0.37418168     0.07100
C1235       C  0.48604091  0.16495991  0.37430080     0.09000
C1236       C  0.46184915  0.16707855  0.37525979    -0.17800
C1237       C  0.62402938  0.46128544  0.16669246    -0.16900
C1238       C  0.62500151  0.48546131  0.16440919     0.07100
C1239       C  0.62520562  0.51394364  0.16415097     0.09000
C1240       C  0.62453398  0.53816386  0.16608812    -0.17800
C1241       C  0.46157370  0.37556184  0.16674930    -0.16900
C1242       C  0.48576651  0.37467139  0.16455544     0.07100
C1243       C  0.51425436  0.37464257  0.16441497     0.09000
C1244       C  0.53846278  0.37549795  0.16644932    -0.17800
C1245       C  0.60083882  0.31541267  0.26129078    -0.16900
C1246       C  0.59632551  0.29884671  0.27837705     0.07100
C1247       C  0.59658265  0.27868873  0.29831339     0.09000
C1248       C  0.60141826  0.26150411  0.31469319    -0.17800
C1249       C  0.66790977  0.03826289  0.12295949    -0.16900
C1250       C  0.66564658  0.01408249  0.12385372     0.07100
C1251       C  0.66537825  0.98560160  0.12396128     0.09000
C1252       C  0.66728479  0.96138269  0.12322129    -0.17800
C1253       C  0.62885479  0.13987175  0.28634406    -0.16900
C1254       C  0.62928147  0.13284109  0.26307434     0.07100
C1255       C  0.63369020  0.12844191  0.23527523     0.09000
C1256       C  0.64073037  0.12802919  0.21201586    -0.17800
C1257       C  0.62851734  0.28683983  0.13970782    -0.16900
C1258       C  0.62898273  0.26361770  0.13254670     0.07100
C1259       C  0.63349843  0.23586411  0.12802663     0.09000
C1260       C  0.64066077  0.21264524  0.12756585    -0.17800
C1261       C  0.96170898  0.12399194  0.33205533    -0.16900
C1262       C  0.98589652  0.12487032  0.33437550     0.07100
C1263       C  0.01439141  0.12491008  0.33469343     0.09000
C1264       C  0.03861721  0.12409888  0.33280031    -0.17800
C1265       C  0.87643777  0.96127639  0.33179248    -0.16900
C1266       C  0.87559501  0.98546080  0.33405739     0.07100
C1267       C  0.87557358  0.01394073  0.33426897     0.09000
C1268       C  0.87637579  0.03814461  0.33225895    -0.17800
C1269       C  0.76243682  0.10045797  0.18320208    -0.16900
C1270       C  0.77956342  0.09559092  0.19966214     0.07100
C1271       C  0.79956460  0.09534693  0.21980103     0.09000
C1272       C  0.81596412  0.09989691  0.23707583    -0.17800
C1273       C  0.71310139  0.13968944  0.37125495    -0.16900
C1274       C  0.73629649  0.13243976  0.37084580     0.07100
C1275       C  0.76404138  0.12787500  0.36633485     0.09000
C1276       C  0.78724654  0.12744704  0.35913433    -0.17800
C1277       C  0.83324672  0.53840037  0.37521395    -0.16900
C1278       C  0.83534824  0.51419591  0.37459214     0.07100
C1279       C  0.83532302  0.48571698  0.37484147     0.09000
C1280       C  0.83313238  0.46153497  0.37581743    -0.17800
C1281       C  0.68434283  0.39922818  0.26129441    -0.16900
C1282       C  0.70076037  0.40414474  0.27844836     0.07100
C1283       C  0.72079786  0.40445113  0.29854490     0.09000
C1284       C  0.73796210  0.39993398  0.31506117    -0.17800
C1285       C  0.87107600  0.21265041  0.35879067    -0.16900
C1286       C  0.87055248  0.23592016  0.36584009     0.07100
C1287       C  0.86612513  0.26371336  0.37035156     0.09000
C1288       C  0.85915061  0.28700197  0.37091021    -0.17800
C1289       C  0.73773862  0.31592689  0.39825697    -0.16900
C1290       C  0.72071100  0.29936341  0.40302999     0.07100
C1291       C  0.70085490  0.27911168  0.40319279     0.09000
C1292       C  0.68454067  0.26178185  0.39861713    -0.17800
C1293       C  0.96171889  0.33292646  0.12417145    -0.16900
C1294       C  0.98592973  0.33488879  0.12505055     0.07100
C1295       C  0.01441395  0.33466441  0.12506216     0.09000
C1296       C  0.03860025  0.33240650  0.12418218    -0.17800
C1297       C  0.76232752  0.18435130  0.09994881    -0.16900
C1298       C  0.77941430  0.20097521  0.09559883     0.07100
C1299       C  0.79931492  0.22118732  0.09606095     0.09000
C1300       C  0.81565238  0.23839561  0.10102064    -0.17800
C1301       C  0.89904869  0.18406440  0.23757074    -0.16900
C1302       C  0.90382280  0.20068138  0.22060542     0.07100
C1303       C  0.90395901  0.22094511  0.20077584     0.09000
C1304       C  0.89937052  0.23824659  0.18444893    -0.17800
C1305       C  0.87216199  0.36017279  0.21289011    -0.16900
C1306       C  0.87177280  0.36732187  0.23611364     0.07100
C1307       C  0.86724280  0.37176742  0.26386819     0.09000
C1308       C  0.85998103  0.37212928  0.28704915    -0.17800
C1309       C  0.78732953  0.36007557  0.12830660    -0.16900
C1310       C  0.76404757  0.36706590  0.12855672     0.07100
C1311       C  0.73620495  0.37136652  0.13277025     0.09000
C1312       C  0.71291145  0.37167279  0.13970351    -0.17800
C1313       C  0.62433317  0.83250170  0.46066290    -0.16900
C1314       C  0.62492668  0.83470707  0.48486144     0.07100
C1315       C  0.62463661  0.83488598  0.51334308     0.09000
C1316       C  0.62361336  0.83288311  0.53754064    -0.17800
C1317       C  0.60032793  0.68498218  0.73754266    -0.16900
C1318       C  0.59575791  0.70135259  0.72027799     0.07100
C1319       C  0.59593202  0.72123009  0.70006157     0.09000
C1320       C  0.60073296  0.73822162  0.68347919    -0.17800
C1321       C  0.83221165  0.62347816  0.53752393    -0.16900
C1322       C  0.83463163  0.62440179  0.51335856     0.07100
C1323       C  0.83507798  0.62457379  0.48487776     0.09000
C1324       C  0.83328119  0.62388542  0.46064834    -0.17800
C1325       C  0.73760436  0.68421622  0.59952848    -0.16900
C1326       C  0.72046145  0.70067391  0.59472223     0.07100
C1327       C  0.70039007  0.72073898  0.59459429     0.09000
C1328       C  0.68391912  0.73791679  0.59924317    -0.17800
C1329       C  0.73721062  0.60081388  0.68329900    -0.16900
C1330       C  0.72015202  0.59641000  0.69993677     0.07100
C1331       C  0.70031608  0.59677085  0.72021384     0.09000
C1332       C  0.68403300  0.60164477  0.73749744    -0.17800
C1333       C  0.66732714  0.87584928  0.03776650    -0.16900
C1334       C  0.66506302  0.87517281  0.01357720     0.07100
C1335       C  0.66482645  0.87536859  0.98509757     0.09000
C1336       C  0.66680458  0.87632815  0.96089582    -0.17800
C1337       C  0.64027231  0.87150088  0.78640580    -0.16900
C1338       C  0.63332081  0.87098967  0.76311015     0.07100
C1339       C  0.62895668  0.86653000  0.73529970     0.09000
C1340       C  0.62849845  0.85951014  0.71202013    -0.17800
C1341       C  0.62761514  0.71333151  0.85943269    -0.16900
C1342       C  0.62797869  0.73655184  0.86659708     0.07100
C1343       C  0.63246408  0.76431152  0.87106472     0.09000
C1344       C  0.63968223  0.78750649  0.87144913    -0.17800
C1345       C  0.87592703  0.66709569  0.96068475    -0.16900
C1346       C  0.87517229  0.66481747  0.98486255     0.07100
C1347       C  0.87526903  0.66464540  0.01333636     0.09000
C1348       C  0.87617991  0.66668695  0.03753403    -0.17800
C1349       C  0.85885673  0.62811326  0.71202175    -0.16900
C1350       C  0.86598364  0.62863167  0.73525162     0.07100
C1351       C  0.87050274  0.63321748  0.76299656     0.09000
C1352       C  0.87101093  0.64040767  0.78621061    -0.17800
C1353       C  0.71241929  0.62875820  0.85932123    -0.16900
C1354       C  0.73569068  0.62906031  0.86635303     0.07100
C1355       C  0.76351638  0.63333374  0.87073004     0.09000
C1356       C  0.78680065  0.64030324  0.87109887    -0.17800
C1357       C  0.76178246  0.81587371  0.89907449    -0.16900
C1358       C  0.77896574  0.79938002  0.90364005     0.07100
C1359       C  0.79899723  0.77925998  0.90346134     0.09000
C1360       C  0.81540064  0.76204721  0.89866859    -0.17800
C1361       C  0.87112412  0.78672821  0.63914639    -0.16900
C1362       C  0.87076509  0.76346080  0.63209648     0.07100
C1363       C  0.86641581  0.73565238  0.62767527     0.09000
C1364       C  0.85937693  0.71239081  0.62725645    -0.17800
C1365       C  0.89830159  0.81518269  0.76091479    -0.16900
C1366       C  0.90313004  0.79888089  0.77817379     0.07100
C1367       C  0.90339168  0.77902171  0.79840515     0.09000
C1368       C  0.89888116  0.76196254  0.81499756    -0.17800
C1369       C  0.78669307  0.87160104  0.63892998    -0.16900
C1370       C  0.76348968  0.87127841  0.63171251     0.07100
C1371       C  0.73572173  0.86688141  0.62720472     0.09000
C1372       C  0.71249657  0.85975290  0.62683194    -0.17800
C1373       C  0.81501144  0.89892278  0.76095232    -0.16900
C1374       C  0.79865430  0.90357433  0.77822594     0.07100
C1375       C  0.77875080  0.90355765  0.79843826     0.09000
C1376       C  0.76169287  0.89890415  0.81500837    -0.17800
C1377       C  0.16737668  0.62374293  0.53740249    -0.16900
C1378       C  0.16545508  0.62465107  0.51319223     0.07100
C1379       C  0.16572440  0.62473247  0.48471048     0.09000
C1380       C  0.16800104  0.62394630  0.46052626    -0.17800
C1381       C  0.53804708  0.83258069  0.62340261    -0.16900
C1382       C  0.51385349  0.83479739  0.62430513     0.07100
C1383       C  0.48536181  0.83494165  0.62435366     0.09000
C1384       C  0.46115198  0.83289494  0.62352415    -0.17800
C1385       C  0.37587465  0.83237160  0.53767576    -0.16900
C1386       C  0.37519210  0.83450289  0.51347305     0.07100
C1387       C  0.37538170  0.83457056  0.48498503     0.09000
C1388       C  0.37635970  0.83251526  0.46078302    -0.17800
C1389       C  0.31538762  0.73788798  0.60013562    -0.16900
C1390       C  0.29906721  0.72060625  0.59537455     0.07100
C1391       C  0.27916934  0.70038308  0.59523924     0.09000
C1392       C  0.26208606  0.68381697  0.59982755    -0.17800
C1393       C  0.46116082  0.62408908  0.83178663    -0.16900
C1394       C  0.48534254  0.62508654  0.83403322     0.07100
C1395       C  0.51382453  0.62525400  0.83423340     0.09000
C1396       C  0.53803697  0.62451549  0.83224413    -0.17800
C1397       C  0.31529929  0.59974880  0.73726133    -0.16900
C1398       C  0.29885299  0.59511831  0.72006511     0.07100
C1399       C  0.27882589  0.59530104  0.69997200     0.09000
C1400       C  0.26172609  0.60015853  0.68349425    -0.17800
C1401       C  0.39863785  0.73794546  0.68381290    -0.16900
C1402       C  0.40313230  0.72068915  0.70022810     0.07100
C1403       C  0.40296588  0.70052409  0.72018184     0.09000
C1404       C  0.39825451  0.68399090  0.73726126    -0.17800
C1405       C  0.96103352  0.87530034  0.66654111    -0.16900
C1406       C  0.98522359  0.87435393  0.66436417     0.07100
C1407       C  0.01370827  0.87426229  0.66426163     0.09000
C1408       C  0.03791195  0.87508764  0.66633893    -0.17800
C1409       C  0.14044723  0.71262220  0.62712636    -0.16900
C1410       C  0.13331149  0.73585604  0.62750747     0.07100
C1411       C  0.12875483  0.76362155  0.63196331     0.09000
C1412       C  0.12821606  0.78684243  0.63913929    -0.17800
C1413       C  0.21236166  0.87169514  0.63949575    -0.16900
C1414       C  0.23560988  0.87128513  0.63239673     0.07100
C1415       C  0.26339699  0.86683895  0.62791176     0.09000
C1416       C  0.28665383  0.85975563  0.62744910    -0.17800
C1417       C  0.12395233  0.66598940  0.96064999    -0.16900
C1418       C  0.12496354  0.66406710  0.98485416     0.07100
C1419       C  0.12522141  0.66440874  0.01333328     0.09000
C1420       C  0.12459214  0.66679828  0.03751205    -0.17800
C1421       C  0.03817843  0.66694246  0.87497443    -0.16900
C1422       C  0.01396698  0.66490629  0.87410436     0.07100
C1423       C  0.98547197  0.66493083  0.87407917     0.09000
C1424       C  0.96126540  0.66704697  0.87492232    -0.17800
C1425       C  0.12818473  0.63924508  0.78621833    -0.16900
C1426       C  0.12863698  0.63239461  0.76289347     0.07100
C1427       C  0.13310233  0.62824290  0.73506123     0.09000
C1428       C  0.14018264  0.62799110  0.71180856    -0.17800
C1429       C  0.28675500  0.62712844  0.85901265    -0.16900
C1430       C  0.26354429  0.62728831  0.86620274     0.07100
C1431       C  0.23575435  0.63153627  0.87073051     0.09000
C1432       C  0.21251427  0.63863343  0.87114833    -0.17800
C1433       C  0.10135577  0.76089128  0.81475153    -0.16900
C1434       C  0.09655363  0.77803792  0.79831507     0.07100
C1435       C  0.09625120  0.79811216  0.77828264     0.09000
C1436       C  0.10064796  0.81464589  0.76112732    -0.17800
C1437       C  0.33255167  0.87548068  0.96072584    -0.16900
C1438       C  0.33510962  0.87466180  0.98487885     0.07100
C1439       C  0.33569739  0.87468334  0.01335248     0.09000
C1440       C  0.33396003  0.87553659  0.03757667    -0.17800
C1441       C  0.18460971  0.76063467  0.89869411    -0.16900
C1442       C  0.20105311  0.77784582  0.90326983     0.07100
C1443       C  0.22099133  0.79802234  0.90309849     0.09000
C1444       C  0.23798502  0.81462074  0.89831110    -0.17800
C1445       C  0.18362711  0.89861388  0.76141734    -0.16900
C1446       C  0.19995984  0.90341809  0.77867416     0.07100
C1447       C  0.21991695  0.90356842  0.79883738     0.09000
C1448       C  0.23707298  0.89895104  0.81532519    -0.17800
C1449       C  0.35938452  0.78695518  0.87042829    -0.16900
C1450       C  0.36632234  0.76365462  0.87002779     0.07100
C1451       C  0.37056782  0.73580717  0.86570354     0.09000
C1452       C  0.37089780  0.71250338  0.85876260    -0.17800
C1453       C  0.35895546  0.87196299  0.78621715    -0.16900
C1454       C  0.36612496  0.87160192  0.76300427     0.07100
C1455       C  0.37066695  0.86713814  0.73524989     0.09000
C1456       C  0.37114523  0.85996533  0.71203276    -0.17800
C1457       C  0.37618139  0.16758166  0.46116715    -0.16900
C1458       C  0.37500417  0.16525318  0.48533302     0.07100
C1459       C  0.37451073  0.16489105  0.51381646     0.09000
C1460       C  0.37497054  0.16675827  0.53804994    -0.17800
C1461       C  0.16591600  0.46122281  0.62368589    -0.16900
C1462       C  0.16413466  0.48545778  0.62433967     0.07100
C1463       C  0.16459036  0.51394286  0.62411445     0.09000
C1464       C  0.16701122  0.53810885  0.62312562    -0.17800
C1465       C  0.16728664  0.37611528  0.46127384    -0.16900
C1466       C  0.16501415  0.37518915  0.48545616     0.07100
C1467       C  0.16475414  0.37501329  0.51394404     0.09000
C1468       C  0.16660117  0.37569396  0.53817312    -0.17800
C1469       C  0.31374226  0.26108980  0.60076390    -0.16900
C1470       C  0.29712008  0.27816535  0.59633729     0.07100
C1471       C  0.27695301  0.29811573  0.59669335     0.09000
C1472       C  0.25979939  0.31453908  0.60156328    -0.17800
C1473       C  0.37494707  0.46112367  0.83236246    -0.16900
C1474       C  0.37437479  0.48534277  0.83440385     0.07100
C1475       C  0.37470262  0.51383319  0.83432791     0.09000
C1476       C  0.37573970  0.53802239  0.83216357    -0.17800
C1477       C  0.25978014  0.39827333  0.68513668    -0.16900
C1478       C  0.27698417  0.40283178  0.70159833     0.07100
C1479       C  0.29717668  0.40273473  0.72153112     0.09000
C1480       C  0.31379293  0.39803423  0.73854220    -0.17800
C1481       C  0.39746958  0.26118956  0.68437737    -0.16900
C1482       C  0.40226781  0.27830477  0.70086741     0.07100
C1483       C  0.40245631  0.29833991  0.72096491     0.09000
C1484       C  0.39790512  0.31481473  0.73816222    -0.17800
C1485       C  0.12289042  0.33232888  0.96106602    -0.16900
C1486       C  0.12386957  0.33438377  0.98527437     0.07100
C1487       C  0.12409042  0.33442331  0.01377133     0.09000
C1488       C  0.12347135  0.33239124  0.03798937    -0.17800
C1489       C  0.21152280  0.35986988  0.87129663    -0.16900
C1490       C  0.23484422  0.36674467  0.87108821     0.07100
C1491       C  0.26272254  0.37094884  0.86694036     0.09000
C1492       C  0.28604274  0.37122175  0.86006403    -0.17800
C1493       C  0.13764310  0.37201919  0.71239996    -0.16900
C1494       C  0.13063082  0.37186149  0.73566963     0.07100
C1495       C  0.12644660  0.36763410  0.76352115     0.09000
C1496       C  0.12629140  0.36059811  0.78678006    -0.17800
C1497       C  0.33155391  0.12370013  0.96129119    -0.16900
C1498       C  0.33372406  0.12448609  0.98549302     0.07100
C1499       C  0.33385762  0.12445777  0.01398609     0.09000
C1500       C  0.33190803  0.12361412  0.03820171    -0.17800
C1501       C  0.33164102  0.96127577  0.87548725    -0.16900
C1502       C  0.33348178  0.98549913  0.87470961     0.07100
C1503       C  0.33318489  0.01398598  0.87476228     0.09000
C1504       C  0.33095375  0.03817715  0.87561969    -0.17800
C1505       C  0.18311044  0.23829329  0.89780303    -0.16900
C1506       C  0.19961658  0.22119801  0.90261729     0.07100
C1507       C  0.21974660  0.20119164  0.90295002     0.09000
C1508       C  0.23698446  0.18470924  0.89856711    -0.17800
C1509       C  0.35912156  0.21244494  0.87183244    -0.16900
C1510       C  0.36627178  0.23567046  0.87157566     0.07100
C1511       C  0.37070221  0.26346939  0.86726731     0.09000
C1512       C  0.37104224  0.28671405  0.86019557    -0.17800
C1513       C  0.35883017  0.12784808  0.78687795    -0.16900
C1514       C  0.36581608  0.12813757  0.76359241     0.07100
C1515       C  0.37014195  0.13239891  0.73575332     0.09000
C1516       C  0.37049398  0.13936145  0.71246569    -0.17800
C1517       C  0.12271891  0.03812231  0.66703254    -0.16900
C1518       C  0.12359115  0.01389951  0.66508346     0.07100
C1519       C  0.12367521  0.98539930  0.66520644     0.09000
C1520       C  0.12295034  0.96118833  0.66730897    -0.17800
C1521       C  0.13790639  0.28690848  0.62767841    -0.16900
C1522       C  0.13101189  0.26359627  0.62789877     0.07100
C1523       C  0.12686116  0.23572745  0.63212767     0.09000
C1524       C  0.12665575  0.21244190  0.63909989    -0.17800
C1525       C  0.21151932  0.12772995  0.63952959    -0.16900
C1526       C  0.23477361  0.12801753  0.63245404     0.07100
C1527       C  0.26258614  0.13233316  0.62805300     0.09000
C1528       C  0.28584751  0.13938038  0.62769803    -0.17800
C1529       C  0.09949425  0.18483903  0.76081579    -0.16900
C1530       C  0.09472227  0.20139253  0.77788306     0.07100
C1531       C  0.09458273  0.22151655  0.79790095     0.09000
C1532       C  0.09917791  0.23868482  0.81439906    -0.17800
C1533       C  0.18309266  0.10112774  0.76139873    -0.16900
C1534       C  0.19958886  0.09656787  0.77856947     0.07100
C1535       C  0.21968446  0.09664457  0.79860840     0.09000
C1536       C  0.23687987  0.10130025  0.81505737    -0.17800
C1537       C  0.53713686  0.16740469  0.62314872    -0.16900
C1538       C  0.51294242  0.16526498  0.62409808     0.07100
C1539       C  0.48445536  0.16519168  0.62428362     0.09000
C1540       C  0.46024043  0.16721735  0.62359504    -0.17800
C1541       C  0.62306472  0.16745915  0.53762547    -0.16900
C1542       C  0.62413942  0.16519089  0.51344752     0.07100
C1543       C  0.62447318  0.16494558  0.48496433     0.09000
C1544       C  0.62389757  0.16690098  0.46074589    -0.17800
C1545       C  0.83200422  0.53804675  0.62338687    -0.16900
C1546       C  0.83405694  0.51384470  0.62434713     0.07100
C1547       C  0.83399593  0.48535613  0.62448696     0.09000
C1548       C  0.83185600  0.46115448  0.62373726    -0.17800
C1549       C  0.83242116  0.37554860  0.53818263    -0.16900
C1550       C  0.83441322  0.37477097  0.51397388     0.07100
C1551       C  0.83418965  0.37486443  0.48549281     0.09000
C1552       C  0.83196520  0.37578222  0.46130864    -0.17800
C1553       C  0.68345973  0.26170352  0.60023163    -0.16900
C1554       C  0.69998491  0.27878621  0.59549632     0.07100
C1555       C  0.72011828  0.29877505  0.59539585     0.09000
C1556       C  0.73733182  0.31520567  0.60002295    -0.17800
C1557       C  0.62351165  0.53892288  0.83183819    -0.16900
C1558       C  0.62420526  0.51472022  0.83399259     0.07100
C1559       C  0.62402087  0.48622856  0.83409246     0.09000
C1560       C  0.62305424  0.46202155  0.83205901    -0.17800
C1561       C  0.53729261  0.37635380  0.83175931    -0.16900
C1562       C  0.51311577  0.37535788  0.83407220     0.07100
C1563       C  0.48463152  0.37510465  0.83442052     0.09000
C1564       C  0.46040182  0.37573366  0.83256160    -0.17800
C1565       C  0.60010922  0.31591305  0.73734732    -0.16900
C1566       C  0.59536429  0.29946650  0.72016691     0.07100
C1567       C  0.59517051  0.27941554  0.70007140     0.09000
C1568       C  0.59966930  0.26222012  0.68357153    -0.17800
C1569       C  0.68352484  0.39948699  0.73748810    -0.16900
C1570       C  0.70000606  0.40392957  0.72028795     0.07100
C1571       C  0.72006074  0.40359972  0.70022664     0.09000
C1572       C  0.73720737  0.39870924  0.68380410    -0.17800
C1573       C  0.03704033  0.12373712  0.66672398    -0.16900
C1574       C  0.01283883  0.12454804  0.66458320     0.07100
C1575       C  0.98435088  0.12452530  0.66456093     0.09000
C1576       C  0.96015075  0.12368079  0.66667847    -0.17800
C1577       C  0.87530230  0.96114655  0.66637263    -0.16900
C1578       C  0.87430356  0.98536217  0.66453162     0.07100
C1579       C  0.87408888  0.01384811  0.66489351     0.09000
C1580       C  0.87476264  0.03803878  0.66719953    -0.17800
C1581       C  0.78578135  0.12798779  0.63954825    -0.16900
C1582       C  0.76250964  0.12840097  0.63251855     0.07100
C1583       C  0.73470662  0.13283618  0.62813047     0.09000
C1584       C  0.71145501  0.13993285  0.62771811    -0.17800
C1585       C  0.85906830  0.28670112  0.62782622    -0.16900
C1586       C  0.86613259  0.26344862  0.62814021     0.07100
C1587       C  0.87045616  0.23564210  0.63248740     0.09000
C1588       C  0.87072226  0.21240300  0.63956673    -0.17800
C1589       C  0.66707746  0.12403882  0.03757232    -0.16900
C1590       C  0.66462663  0.12495698  0.01341015     0.07100
C1591       C  0.66417982  0.12506608  0.98493239     0.09000
C1592       C  0.66598252  0.12430142  0.96070861    -0.17800
C1593       C  0.66555192  0.03870849  0.87501821    -0.16900
C1594       C  0.66388127  0.01447398  0.87422176     0.07100
C1595       C  0.66453593  0.98599588  0.87429314     0.09000
C1596       C  0.66707141  0.96183847  0.87518256    -0.17800
C1597       C  0.63811023  0.12843096  0.78632959    -0.16900
C1598       C  0.63102440  0.12883688  0.76308430     0.07100
C1599       C  0.62670738  0.13328603  0.73529044     0.09000
C1600       C  0.62645905  0.14038595  0.71205556    -0.17800
C1601       C  0.62695749  0.28757491  0.85906605    -0.16900
C1602       C  0.62720534  0.26430261  0.86607902     0.07100
C1603       C  0.63140205  0.23646527  0.87047824     0.09000
C1604       C  0.63831432  0.21315703  0.87089097    -0.17800
C1605       C  0.75997541  0.10095831  0.81451007    -0.16900
C1606       C  0.77718381  0.09624111  0.79810997     0.07100
C1607       C  0.79736296  0.09621629  0.77818458     0.09000
C1608       C  0.81393613  0.10089444  0.76114378    -0.17800
C1609       C  0.87582107  0.33265259  0.03850193    -0.16900
C1610       C  0.87474603  0.33474109  0.01430845     0.07100
C1611       C  0.87441633  0.33475383  0.98581914     0.09000
C1612       C  0.87498531  0.33266463  0.96160518    -0.17800
C1613       C  0.96009379  0.33240069  0.87571870    -0.16900
C1614       C  0.98427948  0.33469385  0.87483814     0.07100
C1615       C  0.01277027  0.33498230  0.87478643     0.09000
C1616       C  0.03699244  0.33304907  0.87557591    -0.17800
C1617       C  0.75998974  0.18476419  0.89812657    -0.16900
C1618       C  0.77716948  0.20111075  0.90313453     0.07100
C1619       C  0.79734947  0.22103358  0.90361383     0.09000
C1620       C  0.81394078  0.23813526  0.89922465    -0.17800
C1621       C  0.89716731  0.23804736  0.81528522    -0.16900
C1622       C  0.90192214  0.22091215  0.79879391     0.07100
C1623       C  0.90214064  0.20084631  0.77871335     0.09000
C1624       C  0.89766449  0.18433735  0.76152111    -0.17800
C1625       C  0.85863596  0.37128758  0.71273997    -0.16900
C1626       C  0.86550428  0.37097127  0.73606086     0.07100
C1627       C  0.86972788  0.36670739  0.76391284     0.09000
C1628       C  0.87004474  0.35976595  0.78720373    -0.17800
C1629       C  0.78570067  0.36002981  0.87208147    -0.16900
C1630       C  0.76249168  0.36723603  0.87159077     0.07100
C1631       C  0.73475820  0.37175872  0.86693753     0.09000
C1632       C  0.71158234  0.37219802  0.85962264    -0.17800
loop_ 
_geom_bond_atom_site_label_1 
_geom_bond_atom_site_label_2 
_geom_bond_distance 
_geom_bond_site_symmetry_2 
_ccdc_geom_bond_type 
Fe1          O17   2.055       .  S
Fe1           O7   2.054       .  S
Fe1          O14   2.056       .  S
Fe1           O6   2.054       .  S
Fe1          O12   1.977       .  S
Fe2           O5   2.062       .  S
Fe2           O9   2.070       .  S
Fe2          O13   2.071       .  S
Fe2          O18   2.062       .  S
Fe2          O12   1.986       .  S
Fe3          O21   2.077       .  S
Fe3           O8   2.077       .  S
Fe3          O15   2.082       .  S
Fe3           O4   2.083       .  S
Fe3          O12   1.989       .  S
O4           C11   1.270       .  A
O5           C19   1.267       .  A
O6           C11   1.265       .  A
O7           C10   1.265       .  A
O8           C20   1.269       .  A
O9           C22   1.267       .  A
C10          O15   1.270       .  A
C10        C1629   1.438       .  S
C11        C1628   1.439       .  S
O13          C16   1.267       .  A
O14          C16   1.265       .  A
C16        C1621   1.434       .  S
O17          C22   1.265       .  A
O18          C20   1.267       .  A
C19          O21   1.270       .  A
C19        C1612   1.439       .  S
C20        C1613   1.439       .  S
C22        C1620   1.433       .  S
Fe23         O39   2.056       .  S
Fe23         O29   2.054       .  S
Fe23         O36   2.056       .  S
Fe23         O28   2.054       .  S
Fe23         O34   1.977       .  S
Fe24         O27   2.060       .  S
Fe24         O31   2.068       .  S
Fe24         O35   2.069       .  S
Fe24         O40   2.060       .  S
Fe24         O34   1.986       .  S
Fe25         O43   2.078       .  S
Fe25         O30   2.078       .  S
Fe25         O37   2.083       .  S
Fe25         O26   2.083       .  S
Fe25         O34   1.989       .  S
O26          C33   1.270       .  A
O27          C41   1.266       .  A
O28          C33   1.265       .  A
O29          C32   1.265       .  A
O30          C42   1.270       .  A
O31          C44   1.266       .  A
C32          O37   1.270       .  A
C32        C1597   1.439       .  S
C33        C1604   1.439       .  S
O35          C38   1.267       .  A
O36          C38   1.265       .  A
C38        C1617   1.433       .  S
O39          C44   1.265       .  A
O40          C42   1.266       .  A
C41          O43   1.270       .  A
C41        C1593   1.439       .  S
C42        C1592   1.439       .  S
C44        C1605   1.433       .  S
Fe45         O61   2.056       .  S
Fe45         O51   2.053       .  S
Fe45         O58   2.055       .  S
Fe45         O50   2.055       .  S
Fe45         O56   1.977       .  S
Fe46         O49   2.062       .  S
Fe46         O53   2.070       .  S
Fe46         O57   2.071       .  S
Fe46         O62   2.062       .  S
Fe46         O56   1.986       .  S
Fe47         O65   2.076       .  S
Fe47         O52   2.077       .  S
Fe47         O59   2.083       .  S
Fe47         O48   2.081       .  S
Fe47         O56   1.989       .  S
O48          C55   1.269       .  A
O49          C63   1.267       .  A
O50          C55   1.265       .  A
O51          C54   1.265       .  A
O52          C64   1.269       .  A
O53          C66   1.267       .  A
C54          O59   1.270       .  A
C54        C1588   1.438       .  S
C55        C1581   1.439       .  S
O57          C60   1.267       .  A
O58          C60   1.265       .  A
C60        C1608   1.433       .  S
O61          C66   1.265       .  A
O62          C64   1.267       .  A
C63          O65   1.269       .  A
C63        C1576   1.439       .  S
C64        C1580   1.439       .  S
C66        C1624   1.434       .  S
Fe67         O83   2.056       .  S
Fe67         O73   2.054       .  S
Fe67         O80   2.056       .  S
Fe67         O72   2.055       .  S
Fe67         O78   1.977       .  S
Fe68         O71   2.062       .  S
Fe68         O75   2.070       .  S
Fe68         O79   2.070       .  S
Fe68         O84   2.062       .  S
Fe68         O78   1.986       .  S
Fe69         O87   2.078       .  S
Fe69         O74   2.076       .  S
Fe69         O81   2.081       .  S
Fe69         O70   2.083       .  S
Fe69         O78   1.989       .  S
O70          C77   1.270       .  A
O71          C85   1.267       .  A
O72          C77   1.265       .  A
O73          C76   1.265       .  A
O74          C86   1.269       .  A
O75          C88   1.267       .  A
C76          O81   1.270       .  A
C76        C1632   1.438       .  S
C77        C1601   1.439       .  S
O79          C82   1.267       .  A
O80          C82   1.265       .  A
C82        C1565   1.434       .  S
O83          C88   1.265       .  A
O84          C86   1.267       .  A
C85          O87   1.270       .  A
C85        C1560   1.439       .  S
C86        C1561   1.439       .  S
C88        C1569   1.433       .  S
Fe89        O105   2.056       .  S
Fe89         O95   2.054       .  S
Fe89        O102   2.056       .  S
Fe89         O94   2.055       .  S
Fe89        O100   1.977       .  S
Fe90         O93   2.061       .  S
Fe90         O97   2.070       .  S
Fe90        O101   2.070       .  S
Fe90        O106   2.061       .  S
Fe90        O100   1.986       .  S
Fe91        O109   2.077       .  S
Fe91         O96   2.077       .  S
Fe91        O103   2.083       .  S
Fe91         O92   2.083       .  S
Fe91        O100   1.989       .  S
O92          C99   1.270       .  A
O93         C107   1.267       .  A
O94          C99   1.265       .  A
O95          C98   1.265       .  A
O96         C108   1.270       .  A
O97         C110   1.267       .  A
C98         O103   1.270       .  A
C98        C1585   1.438       .  S
C99        C1625   1.439       .  S
O101        C104   1.267       .  A
O102        C104   1.265       .  A
C104       C1572   1.433       .  S
O105        C110   1.265       .  A
O106        C108   1.267       .  A
C107        O109   1.270       .  A
C107       C1549   1.439       .  S
C108       C1548   1.439       .  S
C110       C1556   1.434       .  S
Fe111       O127   2.056       .  S
Fe111       O117   2.054       .  S
Fe111       O124   2.056       .  S
Fe111       O116   2.055       .  S
Fe111       O122   1.977       .  S
Fe112       O115   2.062       .  S
Fe112       O119   2.070       .  S
Fe112       O123   2.071       .  S
Fe112       O128   2.062       .  S
Fe112       O122   1.986       .  S
Fe113       O131   2.076       .  S
Fe113       O118   2.077       .  S
Fe113       O125   2.083       .  S
Fe113       O114   2.081       .  S
Fe113       O122   1.989       .  S
O114        C121   1.269       .  A
O115        C129   1.267       .  A
O116        C121   1.265       .  A
O117        C120   1.265       .  A
O118        C130   1.269       .  A
O119        C132   1.267       .  A
C120        O125   1.270       .  A
C120       C1600   1.439       .  S
C121       C1584   1.439       .  S
O123        C126   1.267       .  A
O124        C126   1.265       .  A
C126       C1553   1.434       .  S
O127        C132   1.265       .  A
O128        C130   1.267       .  A
C129        O131   1.269       .  A
C129       C1537   1.439       .  S
C130       C1541   1.439       .  S
C132       C1568   1.434       .  S
Fe133       O149   2.056       .  S
Fe133       O139   2.054       .  S
Fe133       O146   2.056       .  S
Fe133       O138   2.055       .  S
Fe133       O144   1.977       .  S
Fe134       O137   2.062       .  S
Fe134       O141   2.070       .  S
Fe134       O145   2.071       .  S
Fe134       O150   2.061       .  S
Fe134       O144   1.986       .  S
Fe135       O153   2.078       .  S
Fe135       O140   2.077       .  S
Fe135       O147   2.083       .  S
Fe135       O136   2.083       .  S
Fe135       O144   1.989       .  S
O136        C143   1.270       .  A
O137        C151   1.267       .  A
O138        C143   1.265       .  A
O139        C142   1.265       .  A
O140        C152   1.269       .  A
O141        C154   1.267       .  A
C142        O147   1.270       .  A
C142       C1525   1.439       .  S
C143       C1524   1.439       .  S
O145        C148   1.267       .  A
O146        C148   1.265       .  A
C148       C1529   1.434       .  S
O149        C154   1.265       .  A
O150        C152   1.267       .  A
C151        O153   1.270       .  A
C151       C1517   1.440       .  S
C152       C1573   1.439       .  S
C154       C1533   1.433       .  S
Fe155       O171   2.056       .  S
Fe155       O161   2.054       .  S
Fe155       O168   2.056       .  S
Fe155       O160   2.055       .  S
Fe155       O166   1.977       .  S
Fe156       O159   2.062       .  S
Fe156       O163   2.070       .  S
Fe156       O167   2.071       .  S
Fe156       O172   2.062       .  S
Fe156       O166   1.986       .  S
Fe157       O175   2.077       .  S
Fe157       O162   2.077       .  S
Fe157       O169   2.083       .  S
Fe157       O158   2.083       .  S
Fe157       O166   1.989       .  S
O158        C165   1.270       .  A
O159        C173   1.267       .  A
O160        C165   1.265       .  A
O161        C164   1.265       .  A
O162        C174   1.269       .  A
O163        C176   1.267       .  A
C164        O169   1.270       .  A
C164       C1509   1.439       .  S
C165       C1513   1.440       .  S
O167        C170   1.267       .  A
O168        C170   1.265       .  A
C170       C1536   1.433       .  S
O171        C176   1.265       .  A
O172        C174   1.267       .  A
C173        O175   1.270       .  A
C173       C1497   1.439       .  S
C174       C1504   1.439       .  S
C176       C1508   1.434       .  S
Fe177       O193   2.056       .  S
Fe177       O183   2.054       .  S
Fe177       O190   2.056       .  S
Fe177       O182   2.054       .  S
Fe177       O188   1.977       .  S
Fe178       O181   2.061       .  S
Fe178       O185   2.070       .  S
Fe178       O189   2.070       .  S
Fe178       O194   2.062       .  S
Fe178       O188   1.986       .  S
Fe179       O197   2.078       .  S
Fe179       O184   2.078       .  S
Fe179       O191   2.083       .  S
Fe179       O180   2.083       .  S
Fe179       O188   1.989       .  S
O180        C187   1.270       .  A
O181        C195   1.267       .  A
O182        C187   1.265       .  A
O183        C186   1.265       .  A
O184        C196   1.270       .  A
O185        C198   1.267       .  A
C186        O191   1.270       .  A
C186       C1496   1.439       .  S
C187       C1489   1.439       .  S
O189        C192   1.267       .  A
O190        C192   1.265       .  A
C192       C1505   1.434       .  S
O193        C198   1.265       .  A
O194        C196   1.267       .  A
C195        O197   1.270       .  A
C195       C1616   1.439       .  S
C196       C1485   1.440       .  S
C198       C1532   1.434       .  S
Fe199       O215   2.056       .  S
Fe199       O205   2.053       .  S
Fe199       O212   2.055       .  S
Fe199       O204   2.054       .  S
Fe199       O210   1.977       .  S
Fe200       O203   2.061       .  S
Fe200       O207   2.069       .  S
Fe200       O211   2.071       .  S
Fe200       O216   2.061       .  S
Fe200       O210   1.986       .  S
Fe201       O219   2.077       .  S
Fe201       O206   2.078       .  S
Fe201       O213   2.084       .  S
Fe201       O202   2.083       .  S
Fe201       O210   1.989       .  S
O202        C209   1.270       .  A
O203        C217   1.267       .  A
O204        C209   1.265       .  A
O205        C208   1.265       .  A
O206        C218   1.270       .  A
O207        C220   1.267       .  A
C208        O213   1.270       .  A
C208       C1512   1.439       .  S
C209       C1492   1.439       .  S
O211        C214   1.267       .  A
O212        C214   1.265       .  A
C214       C1480   1.433       .  S
O215        C220   1.265       .  A
O216        C218   1.267       .  A
C217        O219   1.270       .  A
C217       C1564   1.439       .  S
C218       C1473   1.439       .  S
C220       C1484   1.433       .  S
Fe221       O237   2.056       .  S
Fe221       O227   2.053       .  S
Fe221       O234   2.056       .  S
Fe221       O226   2.054       .  S
Fe221       O232   1.977       .  S
Fe222       O225   2.061       .  S
Fe222       O229   2.069       .  S
Fe222       O233   2.069       .  S
Fe222       O238   2.061       .  S
Fe222       O232   1.986       .  S
Fe223       O241   2.078       .  S
Fe223       O228   2.078       .  S
Fe223       O235   2.084       .  S
Fe223       O224   2.083       .  S
Fe223       O232   1.989       .  S
O224        C231   1.270       .  A
O225        C239   1.267       .  A
O226        C231   1.265       .  A
O227        C230   1.265       .  A
O228        C240   1.270       .  A
O229        C242   1.267       .  A
C230        O235   1.270       .  A
C230       C1493   1.439       .  S
C231       C1521   1.439       .  S
O233        C236   1.267       .  A
O234        C236   1.265       .  A
C236       C1472   1.433       .  S
O237        C242   1.265       .  A
O238        C240   1.267       .  A
C239        O241   1.270       .  A
C239       C1461   1.439       .  S
C240       C1468   1.439       .  S
C242       C1477   1.433       .  S
Fe243       O259   2.055       .  S
Fe243       O249   2.054       .  S
Fe243       O256   2.055       .  S
Fe243       O248   2.054       .  S
Fe243       O254   1.977       .  S
Fe244       O247   2.061       .  S
Fe244       O251   2.069       .  S
Fe244       O255   2.070       .  S
Fe244       O260   2.061       .  S
Fe244       O254   1.986       .  S
Fe245       O263   2.078       .  S
Fe245       O250   2.078       .  S
Fe245       O257   2.083       .  S
Fe245       O246   2.083       .  S
Fe245       O254   1.989       .  S
O246        C253   1.270       .  A
O247        C261   1.266       .  A
O248        C253   1.265       .  A
O249        C252   1.265       .  A
O250        C262   1.270       .  A
O251        C264   1.267       .  A
C252        O257   1.270       .  A
C252       C1528   1.439       .  S
C253       C1516   1.440       .  S
O255        C258   1.267       .  A
O256        C258   1.265       .  A
C258       C1481   1.433       .  S
O259        C264   1.265       .  A
O260        C262   1.267       .  A
C261        O263   1.270       .  A
C261       C1460   1.439       .  S
C262       C1540   1.439       .  S
C264       C1469   1.433       .  S
Fe265       O281   2.055       .  S
Fe265       O271   2.054       .  S
Fe265       O278   2.056       .  S
Fe265       O270   2.054       .  S
Fe265       O276   1.977       .  S
Fe266       O269   2.061       .  S
Fe266       O273   2.070       .  S
Fe266       O277   2.070       .  S
Fe266       O282   2.061       .  S
Fe266       O276   1.986       .  S
Fe267       O285   2.078       .  S
Fe267       O272   2.076       .  S
Fe267       O279   2.082       .  S
Fe267       O268   2.083       .  S
Fe267       O276   1.989       .  S
O268        C275   1.270       .  A
O269        C283   1.267       .  A
O270        C275   1.265       .  A
O271        C274   1.265       .  A
O272        C284   1.269       .  A
O273        C286   1.267       .  A
C274        O279   1.270       .  A
C274       C1453   1.438       .  S
C275       C1449   1.439       .  S
O277        C280   1.267       .  A
O278        C280   1.265       .  A
C280       C1444   1.433       .  S
O281        C286   1.265       .  A
O282        C284   1.267       .  A
C283        O285   1.270       .  A
C283       C1501   1.439       .  S
C284       C1437   1.439       .  S
C286       C1448   1.433       .  S
Fe287       O303   2.056       .  S
Fe287       O293   2.053       .  S
Fe287       O300   2.055       .  S
Fe287       O292   2.054       .  S
Fe287       O298   1.976       .  S
Fe288       O291   2.062       .  S
Fe288       O295   2.069       .  S
Fe288       O299   2.071       .  S
Fe288       O304   2.061       .  S
Fe288       O298   1.986       .  S
Fe289       O307   2.077       .  S
Fe289       O294   2.078       .  S
Fe289       O301   2.083       .  S
Fe289       O290   2.082       .  S
Fe289       O298   1.989       .  S
O290        C297   1.270       .  A
O291        C305   1.267       .  A
O292        C297   1.265       .  A
O293        C296   1.265       .  A
O294        C306   1.270       .  A
O295        C308   1.267       .  A
C296        O301   1.270       .  A
C296       C1432   1.438       .  S
C297       C1425   1.439       .  S
O299        C302   1.267       .  A
O300        C302   1.265       .  A
C302       C1433   1.434       .  S
O303        C308   1.265       .  A
O304        C306   1.267       .  A
C305        O307   1.269       .  A
C305       C1417   1.439       .  S
C306       C1421   1.439       .  S
C308       C1441   1.433       .  S
Fe309       O325   2.056       .  S
Fe309       O315   2.054       .  S
Fe309       O322   2.056       .  S
Fe309       O314   2.055       .  S
Fe309       O320   1.977       .  S
Fe310       O313   2.061       .  S
Fe310       O317   2.070       .  S
Fe310       O321   2.070       .  S
Fe310       O326   2.062       .  S
Fe310       O320   1.986       .  S
Fe311       O329   2.077       .  S
Fe311       O316   2.078       .  S
Fe311       O323   2.083       .  S
Fe311       O312   2.082       .  S
Fe311       O320   1.989       .  S
O312        C319   1.270       .  A
O313        C327   1.267       .  A
O314        C319   1.265       .  A
O315        C318   1.265       .  A
O316        C328   1.270       .  A
O317        C330   1.267       .  A
C318        O323   1.270       .  A
C318       C1412   1.439       .  S
C319       C1413   1.439       .  S
O321        C324   1.267       .  A
O322        C324   1.265       .  A
C324       C1445   1.433       .  S
O325        C330   1.265       .  A
O326        C328   1.267       .  A
C327        O329   1.269       .  A
C327       C1408   1.439       .  S
C328       C1520   1.440       .  S
C330       C1436   1.434       .  S
Fe331       O347   2.056       .  S
Fe331       O337   2.054       .  S
Fe331       O344   2.056       .  S
Fe331       O336   2.055       .  S
Fe331       O342   1.977       .  S
Fe332       O335   2.063       .  S
Fe332       O339   2.069       .  S
Fe332       O343   2.072       .  S
Fe332       O348   2.061       .  S
Fe332       O342   1.986       .  S
Fe333       O351   2.077       .  S
Fe333       O338   2.076       .  S
Fe333       O345   2.081       .  S
Fe333       O334   2.082       .  S
Fe333       O342   1.989       .  S
O334        C341   1.270       .  A
O335        C349   1.267       .  A
O336        C341   1.265       .  A
O337        C340   1.265       .  A
O338        C350   1.269       .  A
O339        C352   1.267       .  A
C340        O345   1.270       .  A
C340       C1429   1.438       .  S
C341       C1452   1.439       .  S
O343        C346   1.267       .  A
O344        C346   1.265       .  A
C346       C1404   1.434       .  S
O347        C352   1.265       .  A
O348        C350   1.267       .  A
C349        O351   1.269       .  A
C349       C1476   1.439       .  S
C350       C1393   1.439       .  S
C352       C1397   1.433       .  S
Fe353       O369   2.056       .  S
Fe353       O359   2.054       .  S
Fe353       O366   2.056       .  S
Fe353       O358   2.055       .  S
Fe353       O364   1.977       .  S
Fe354       O357   2.061       .  S
Fe354       O361   2.070       .  S
Fe354       O365   2.070       .  S
Fe354       O370   2.062       .  S
Fe354       O364   1.986       .  S
Fe355       O373   2.077       .  S
Fe355       O360   2.077       .  S
Fe355       O367   2.082       .  S
Fe355       O356   2.082       .  S
Fe355       O364   1.989       .  S
O356        C363   1.270       .  A
O357        C371   1.267       .  A
O358        C363   1.265       .  A
O359        C362   1.265       .  A
O360        C372   1.269       .  A
O361        C374   1.267       .  A
C362        O367   1.270       .  A
C362       C1456   1.438       .  S
C363       C1416   1.439       .  S
O365        C368   1.267       .  A
O366        C368   1.265       .  A
C368       C1389   1.434       .  S
O369        C374   1.265       .  A
O370        C372   1.267       .  A
C371        O373   1.269       .  A
C371       C1384   1.439       .  S
C372       C1385   1.439       .  S
C374       C1401   1.434       .  S
Fe375       O391   2.056       .  S
Fe375       O381   2.054       .  S
Fe375       O388   2.056       .  S
Fe375       O380   2.055       .  S
Fe375       O386   1.977       .  S
Fe376       O379   2.061       .  S
Fe376       O383   2.071       .  S
Fe376       O387   2.069       .  S
Fe376       O392   2.062       .  S
Fe376       O386   1.986       .  S
Fe377       O395   2.077       .  S
Fe377       O382   2.077       .  S
Fe377       O389   2.082       .  S
Fe377       O378   2.082       .  S
Fe377       O386   1.989       .  S
O378        C385   1.270       .  A
O379        C393   1.267       .  A
O380        C385   1.265       .  A
O381        C384   1.265       .  A
O382        C394   1.269       .  A
O383        C396   1.267       .  A
C384        O389   1.270       .  A
C384       C1409   1.439       .  S
C385       C1428   1.439       .  S
O387        C390   1.267       .  A
O388        C390   1.265       .  A
C390       C1400   1.433       .  S
O391        C396   1.265       .  A
O392        C394   1.267       .  A
C393        O395   1.270       .  A
C393       C1377   1.439       .  S
C394       C1464   1.439       .  S
C396       C1392   1.434       .  S
Fe397       O413   2.056       .  S
Fe397       O403   2.054       .  S
Fe397       O410   2.056       .  S
Fe397       O402   2.055       .  S
Fe397       O408   1.977       .  S
Fe398       O401   2.061       .  S
Fe398       O405   2.069       .  S
Fe398       O409   2.069       .  S
Fe398       O414   2.061       .  S
Fe398       O408   1.986       .  S
Fe399       O417   2.078       .  S
Fe399       O404   2.076       .  S
Fe399       O411   2.081       .  S
Fe399       O400   2.082       .  S
Fe399       O408   1.989       .  S
O400        C407   1.270       .  A
O401        C415   1.267       .  A
O402        C407   1.265       .  A
O403        C406   1.265       .  A
O404        C416   1.269       .  A
O405        C418   1.267       .  A
C406        O411   1.270       .  A
C406       C1369   1.438       .  S
C407       C1361   1.439       .  S
O409        C412   1.267       .  A
O410        C412   1.265       .  A
C412       C1365   1.433       .  S
O413        C418   1.265       .  A
O414        C416   1.267       .  A
C415        O417   1.270       .  A
C415       C1577   1.439       .  S
C416       C1405   1.439       .  S
C418       C1373   1.433       .  S
Fe419       O435   2.055       .  S
Fe419       O425   2.054       .  S
Fe419       O432   2.056       .  S
Fe419       O424   2.054       .  S
Fe419       O430   1.977       .  S
Fe420       O423   2.062       .  S
Fe420       O427   2.070       .  S
Fe420       O431   2.071       .  S
Fe420       O436   2.061       .  S
Fe420       O430   1.986       .  S
Fe421       O439   2.077       .  S
Fe421       O426   2.077       .  S
Fe421       O433   2.082       .  S
Fe421       O422   2.082       .  S
Fe421       O430   1.989       .  S
O422        C429   1.270       .  A
O423        C437   1.267       .  A
O424        C429   1.265       .  A
O425        C428   1.265       .  A
O426        C438   1.269       .  A
O427        C440   1.267       .  A
C428        O433   1.270       .  A
C428       C1352   1.439       .  S
C429       C1356   1.439       .  S
O431        C434   1.267       .  A
O432        C434   1.265       .  A
C434       C1360   1.434       .  S
O435        C440   1.265       .  A
O436        C438   1.267       .  A
C437        O439   1.269       .  A
C437       C1424   1.439       .  S
C438       C1345   1.439       .  S
C440       C1368   1.433       .  S
Fe441       O457   2.056       .  S
Fe441       O447   2.054       .  S
Fe441       O454   2.055       .  S
Fe441       O446   2.055       .  S
Fe441       O452   1.977       .  S
Fe442       O445   2.061       .  S
Fe442       O449   2.071       .  S
Fe442       O453   2.070       .  S
Fe442       O458   2.063       .  S
Fe442       O452   1.986       .  S
Fe443       O461   2.077       .  S
Fe443       O448   2.076       .  S
Fe443       O455   2.081       .  S
Fe443       O444   2.083       .  S
Fe443       O452   1.989       .  S
O444        C451   1.270       .  A
O445        C459   1.267       .  A
O446        C451   1.265       .  A
O447        C450   1.265       .  A
O448        C460   1.269       .  A
O449        C462   1.267       .  A
C450        O455   1.270       .  A
C450       C1344   1.438       .  S
C451       C1337   1.439       .  S
O453        C456   1.267       .  A
O454        C456   1.265       .  A
C456       C1376   1.433       .  S
O457        C462   1.265       .  A
O458        C460   1.267       .  A
C459        O461   1.270       .  A
C459       C1336   1.439       .  S
C460       C1596   1.439       .  S
C462       C1357   1.434       .  S
Fe463       O479   2.055       .  S
Fe463       O469   2.054       .  S
Fe463       O476   2.055       .  S
Fe463       O468   2.054       .  S
Fe463       O474   1.977       .  S
Fe464       O467   2.062       .  S
Fe464       O471   2.070       .  S
Fe464       O475   2.071       .  S
Fe464       O480   2.062       .  S
Fe464       O474   1.986       .  S
Fe465       O483   2.077       .  S
Fe465       O470   2.077       .  S
Fe465       O477   2.082       .  S
Fe465       O466   2.082       .  S
Fe465       O474   1.989       .  S
O466        C473   1.270       .  A
O467        C481   1.267       .  A
O468        C473   1.265       .  A
O469        C472   1.265       .  A
O470        C482   1.269       .  A
O471        C484   1.267       .  A
C472        O477   1.270       .  A
C472       C1349   1.438       .  S
C473       C1364   1.439       .  S
O475        C478   1.267       .  A
O476        C478   1.265       .  A
C478       C1325   1.434       .  S
O479        C484   1.265       .  A
O480        C482   1.267       .  A
C481        O483   1.269       .  A
C481       C1545   1.439       .  S
C482       C1321   1.439       .  S
C484       C1329   1.433       .  S
Fe485       O501   2.056       .  S
Fe485       O491   2.054       .  S
Fe485       O498   2.056       .  S
Fe485       O490   2.055       .  S
Fe485       O496   1.977       .  S
Fe486       O489   2.061       .  S
Fe486       O493   2.069       .  S
Fe486       O497   2.070       .  S
Fe486       O502   2.061       .  S
Fe486       O496   1.986       .  S
Fe487       O505   2.076       .  S
Fe487       O492   2.078       .  S
Fe487       O499   2.082       .  S
Fe487       O488   2.081       .  S
Fe487       O496   1.989       .  S
O488        C495   1.270       .  A
O489        C503   1.267       .  A
O490        C495   1.265       .  A
O491        C494   1.265       .  A
O492        C504   1.270       .  A
O493        C506   1.267       .  A
C494        O499   1.270       .  A
C494       C1341   1.438       .  S
C495       C1353   1.439       .  S
O497        C500   1.267       .  A
O498        C500   1.265       .  A
C500       C1332   1.433       .  S
O501        C506   1.265       .  A
O502        C504   1.267       .  A
C503        O505   1.269       .  A
C503       C1396   1.439       .  S
C504       C1557   1.439       .  S
C506       C1317   1.433       .  S
Fe507       O523   2.056       .  S
Fe507       O513   2.053       .  S
Fe507       O520   2.055       .  S
Fe507       O512   2.055       .  S
Fe507       O518   1.977       .  S
Fe508       O511   2.061       .  S
Fe508       O515   2.070       .  S
Fe508       O519   2.070       .  S
Fe508       O524   2.061       .  S
Fe508       O518   1.986       .  S
Fe509       O527   2.077       .  S
Fe509       O514   2.077       .  S
Fe509       O521   2.082       .  S
Fe509       O510   2.082       .  S
Fe509       O518   1.989       .  S
O510        C517   1.270       .  A
O511        C525   1.267       .  A
O512        C517   1.265       .  A
O513        C516   1.265       .  A
O514        C526   1.269       .  A
O515        C528   1.267       .  A
C516        O521   1.270       .  A
C516       C1372   1.438       .  S
C517       C1340   1.439       .  S
O519        C522   1.267       .  A
O520        C522   1.265       .  A
C522       C1320   1.433       .  S
O523        C528   1.265       .  A
O524        C526   1.267       .  A
C525        O527   1.270       .  A
C525       C1316   1.439       .  S
C526       C1381   1.439       .  S
C528       C1328   1.434       .  S
Fe529       O545   2.056       .  S
Fe529       O535   2.054       .  S
Fe529       O542   2.056       .  S
Fe529       O534   2.054       .  S
Fe529       O540   1.977       .  S
Fe530       O533   2.061       .  S
Fe530       O537   2.069       .  S
Fe530       O541   2.070       .  S
Fe530       O546   2.061       .  S
Fe530       O540   1.986       .  S
Fe531       O549   2.077       .  S
Fe531       O536   2.077       .  S
Fe531       O543   2.082       .  S
Fe531       O532   2.081       .  S
Fe531       O540   1.989       .  S
O532        C539   1.270       .  A
O533        C547   1.267       .  A
O534        C539   1.265       .  A
O535        C538   1.265       .  A
O536        C548   1.269       .  A
O537        C550   1.267       .  A
C538        O543   1.270       .  A
C538       C1305   1.438       .  S
C539       C1309   1.439       .  S
O541        C544   1.267       .  A
O542        C544   1.265       .  A
C544       C1300   1.433       .  S
O545        C550   1.265       .  A
O546        C548   1.267       .  A
C547        O549   1.269       .  A
C547       C1293   1.439       .  S
C548       C1609   1.439       .  S
C550       C1304   1.433       .  S
Fe551       O567   2.056       .  S
Fe551       O557   2.054       .  S
Fe551       O564   2.055       .  S
Fe551       O556   2.055       .  S
Fe551       O562   1.976       .  S
Fe552       O555   2.062       .  S
Fe552       O559   2.070       .  S
Fe552       O563   2.071       .  S
Fe552       O568   2.062       .  S
Fe552       O562   1.986       .  S
Fe553       O571   2.077       .  S
Fe553       O558   2.076       .  S
Fe553       O565   2.082       .  S
Fe553       O554   2.082       .  S
Fe553       O562   1.989       .  S
O554        C561   1.270       .  A
O555        C569   1.267       .  A
O556        C561   1.265       .  A
O557        C560   1.265       .  A
O558        C570   1.269       .  A
O559        C572   1.267       .  A
C560        O565   1.270       .  A
C560       C1308   1.438       .  S
C561       C1288   1.439       .  S
O563        C566   1.267       .  A
O564        C566   1.265       .  A
C566       C1289   1.433       .  S
O567        C572   1.265       .  A
O568        C570   1.267       .  A
C569        O571   1.269       .  A
C569       C1280   1.439       .  S
C570       C1552   1.439       .  S
C572       C1284   1.434       .  S
Fe573       O589   2.056       .  S
Fe573       O579   2.054       .  S
Fe573       O586   2.055       .  S
Fe573       O578   2.055       .  S
Fe573       O584   1.977       .  S
Fe574       O577   2.061       .  S
Fe574       O581   2.071       .  S
Fe574       O585   2.070       .  S
Fe574       O590   2.062       .  S
Fe574       O584   1.986       .  S
Fe575       O593   2.077       .  S
Fe575       O580   2.077       .  S
Fe575       O587   2.082       .  S
Fe575       O576   2.083       .  S
Fe575       O584   1.989       .  S
O576        C583   1.270       .  A
O577        C591   1.267       .  A
O578        C583   1.265       .  A
O579        C582   1.265       .  A
O580        C592   1.269       .  A
O581        C594   1.267       .  A
C582        O587   1.270       .  A
C582       C1276   1.438       .  S
C583       C1285   1.439       .  S
O585        C588   1.267       .  A
O586        C588   1.265       .  A
C588       C1301   1.433       .  S
O589        C594   1.265       .  A
O590        C592   1.267       .  A
C591        O593   1.270       .  A
C591       C1268   1.439       .  S
C592       C1261   1.439       .  S
C594       C1272   1.434       .  S
Fe595       O611   2.055       .  S
Fe595       O601   2.054       .  S
Fe595       O608   2.056       .  S
Fe595       O600   2.054       .  S
Fe595       O606   1.976       .  S
Fe596       O599   2.063       .  S
Fe596       O603   2.070       .  S
Fe596       O607   2.071       .  S
Fe596       O612   2.062       .  S
Fe596       O606   1.986       .  S
Fe597       O615   2.076       .  S
Fe597       O602   2.077       .  S
Fe597       O609   2.082       .  S
Fe597       O598   2.081       .  S
Fe597       O606   1.989       .  S
O598        C605   1.269       .  A
O599        C613   1.267       .  A
O600        C605   1.265       .  A
O601        C604   1.265       .  A
O602        C614   1.269       .  A
O603        C616   1.267       .  A
C604        O609   1.270       .  A
C604       C1260   1.438       .  S
C605       C1256   1.439       .  S
O607        C610   1.267       .  A
O608        C610   1.265       .  A
C610       C1269   1.434       .  S
O611        C616   1.265       .  A
O612        C614   1.267       .  A
C613        O615   1.269       .  A
C613       C1589   1.439       .  S
C614       C1249   1.439       .  S
C616       C1297   1.433       .  S
Fe617       O633   2.055       .  S
Fe617       O623   2.054       .  S
Fe617       O630   2.056       .  S
Fe617       O622   2.054       .  S
Fe617       O628   1.977       .  S
Fe618       O621   2.061       .  S
Fe618       O625   2.070       .  S
Fe618       O629   2.070       .  S
Fe618       O634   2.061       .  S
Fe618       O628   1.986       .  S
Fe619       O637   2.077       .  S
Fe619       O624   2.077       .  S
Fe619       O631   2.082       .  S
Fe619       O620   2.081       .  S
Fe619       O628   1.989       .  S
O620        C627   1.270       .  A
O621        C635   1.267       .  A
O622        C627   1.265       .  A
O623        C626   1.265       .  A
O624        C636   1.269       .  A
O625        C638   1.267       .  A
C626        O631   1.270       .  A
C626       C1257   1.438       .  S
C627       C1312   1.439       .  S
O629        C632   1.267       .  A
O630        C632   1.265       .  A
C632       C1281   1.434       .  S
O633        C638   1.265       .  A
O634        C636   1.267       .  A
C635        O637   1.269       .  A
C635       C1244   1.439       .  S
C636       C1237   1.439       .  S
C638       C1245   1.433       .  S
Fe639       O655   2.056       .  S
Fe639       O645   2.054       .  S
Fe639       O652   2.056       .  S
Fe639       O644   2.055       .  S
Fe639       O650   1.977       .  S
Fe640       O643   2.061       .  S
Fe640       O647   2.069       .  S
Fe640       O651   2.070       .  S
Fe640       O656   2.060       .  S
Fe640       O650   1.986       .  S
Fe641       O659   2.077       .  S
Fe641       O646   2.076       .  S
Fe641       O653   2.082       .  S
Fe641       O642   2.082       .  S
Fe641       O650   1.989       .  S
O642        C649   1.270       .  A
O643        C657   1.267       .  A
O644        C649   1.265       .  A
O645        C648   1.265       .  A
O646        C658   1.269       .  A
O647        C660   1.267       .  A
C648        O653   1.270       .  A
C648       C1273   1.438       .  S
C649       C1253   1.439       .  S
O651        C654   1.267       .  A
O652        C654   1.265       .  A
C654       C1248   1.433       .  S
O655        C660   1.265       .  A
O656        C658   1.267       .  A
C657        O659   1.270       .  A
C657       C1544   1.439       .  S
C658       C1233   1.438       .  S
C660       C1292   1.433       .  S
Fe661       O677   2.056       .  S
Fe661       O667   2.054       .  S
Fe661       O674   2.056       .  S
Fe661       O666   2.054       .  S
Fe661       O672   1.977       .  S
Fe662       O665   2.062       .  S
Fe662       O669   2.070       .  S
Fe662       O673   2.070       .  S
Fe662       O678   2.061       .  S
Fe662       O672   1.986       .  S
Fe663       O681   2.078       .  S
Fe663       O668   2.077       .  S
Fe663       O675   2.082       .  S
Fe663       O664   2.083       .  S
Fe663       O672   1.989       .  S
O664        C671   1.270       .  A
O665        C679   1.267       .  A
O666        C671   1.265       .  A
O667        C670   1.265       .  A
O668        C680   1.269       .  A
O669        C682   1.267       .  A
C670        O675   1.270       .  A
C670       C1232   1.438       .  S
C671       C1225   1.439       .  S
O673        C676   1.267       .  A
O674        C676   1.265       .  A
C676       C1224   1.434       .  S
O677        C682   1.265       .  A
O678        C680   1.267       .  A
C679        O681   1.270       .  A
C679       C1213   1.439       .  S
C680       C1265   1.439       .  S
C682       C1220   1.433       .  S
Fe683       O699   2.056       .  S
Fe683       O689   2.054       .  S
Fe683       O696   2.056       .  S
Fe683       O688   2.054       .  S
Fe683       O694   1.977       .  S
Fe684       O687   2.061       .  S
Fe684       O691   2.070       .  S
Fe684       O695   2.070       .  S
Fe684       O700   2.062       .  S
Fe684       O694   1.986       .  S
Fe685       O703   2.076       .  S
Fe685       O690   2.077       .  S
Fe685       O697   2.083       .  S
Fe685       O686   2.082       .  S
Fe685       O694   1.989       .  S
O686        C693   1.270       .  A
O687        C701   1.267       .  A
O688        C693   1.265       .  A
O689        C692   1.265       .  A
O690        C702   1.270       .  A
O691        C704   1.267       .  A
C692        O697   1.270       .  A
C692       C1205   1.439       .  S
C693       C1209   1.439       .  S
O695        C698   1.267       .  A
O696        C698   1.265       .  A
C698       C1217   1.433       .  S
O699        C704   1.265       .  A
O700        C702   1.267       .  A
C701        O703   1.269       .  A
C701       C1348   1.438       .  S
C702       C1197   1.439       .  S
C704       C1201   1.434       .  S
Fe705       O721   2.056       .  S
Fe705       O711   2.053       .  S
Fe705       O718   2.055       .  S
Fe705       O710   2.054       .  S
Fe705       O716   1.977       .  S
Fe706       O709   2.061       .  S
Fe706       O713   2.070       .  S
Fe706       O717   2.071       .  S
Fe706       O722   2.062       .  S
Fe706       O716   1.986       .  S
Fe707       O725   2.077       .  S
Fe707       O712   2.077       .  S
Fe707       O719   2.082       .  S
Fe707       O708   2.083       .  S
Fe707       O716   1.989       .  S
O708        C715   1.270       .  A
O709        C723   1.267       .  A
O710        C715   1.265       .  A
O711        C714   1.265       .  A
O712        C724   1.269       .  A
O713        C726   1.267       .  A
C714        O719   1.270       .  A
C714       C1196   1.438       .  S
C715       C1192   1.439       .  S
O717        C720   1.267       .  A
O718        C720   1.265       .  A
C720       C1204   1.434       .  S
O721        C726   1.265       .  A
O722        C724   1.267       .  A
C723        O725   1.270       .  A
C723       C1252   1.439       .  S
C724       C1333   1.439       .  S
C726       C1221   1.434       .  S
Fe727       O743   2.056       .  S
Fe727       O733   2.054       .  S
Fe727       O740   2.056       .  S
Fe727       O732   2.054       .  S
Fe727       O738   1.977       .  S
Fe728       O731   2.061       .  S
Fe728       O735   2.070       .  S
Fe728       O739   2.070       .  S
Fe728       O744   2.062       .  S
Fe728       O738   1.986       .  S
Fe729       O747   2.077       .  S
Fe729       O734   2.076       .  S
Fe729       O741   2.082       .  S
Fe729       O730   2.083       .  S
Fe729       O738   1.989       .  S
O730        C737   1.270       .  A
O731        C745   1.267       .  A
O732        C737   1.265       .  A
O733        C736   1.265       .  A
O734        C746   1.269       .  A
O735        C748   1.267       .  A
C736        O741   1.270       .  A
C736       C1193   1.438       .  S
C737       C1228   1.439       .  S
O739        C742   1.267       .  A
O740        C742   1.265       .  A
C742       C1185   1.433       .  S
O743        C748   1.265       .  A
O744        C746   1.267       .  A
C745        O747   1.270       .  A
C745       C1180   1.439       .  S
C746       C1313   1.439       .  S
C748       C1181   1.433       .  S
Fe749       O765   2.056       .  S
Fe749       O755   2.054       .  S
Fe749       O762   2.056       .  S
Fe749       O754   2.054       .  S
Fe749       O760   1.977       .  S
Fe750       O753   2.061       .  S
Fe750       O757   2.069       .  S
Fe750       O761   2.070       .  S
Fe750       O766   2.061       .  S
Fe750       O760   1.986       .  S
Fe751       O769   2.078       .  S
Fe751       O756   2.077       .  S
Fe751       O763   2.082       .  S
Fe751       O752   2.083       .  S
Fe751       O760   1.989       .  S
O752        C759   1.270       .  A
O753        C767   1.267       .  A
O754        C759   1.265       .  A
O755        C758   1.265       .  A
O756        C768   1.269       .  A
O757        C770   1.267       .  A
C758        O763   1.270       .  A
C758       C1229   1.438       .  S
C759       C1212   1.439       .  S
O761        C764   1.267       .  A
O762        C764   1.265       .  A
C764       C1173   1.433       .  S
O765        C770   1.265       .  A
O766        C768   1.267       .  A
C767        O769   1.270       .  A
C767       C1324   1.439       .  S
C768       C1277   1.439       .  S
C770       C1188   1.433       .  S
Fe771       O787   2.056       .  S
Fe771       O777   2.054       .  S
Fe771       O784   2.056       .  S
Fe771       O776   2.055       .  S
Fe771       O782   1.977       .  S
Fe772       O775   2.061       .  S
Fe772       O779   2.070       .  S
Fe772       O783   2.070       .  S
Fe772       O788   2.061       .  S
Fe772       O782   1.986       .  S
Fe773       O791   2.077       .  S
Fe773       O778   2.077       .  S
Fe773       O785   2.083       .  S
Fe773       O774   2.082       .  S
Fe773       O782   1.989       .  S
O774        C781   1.270       .  A
O775        C789   1.267       .  A
O776        C781   1.265       .  A
O777        C780   1.265       .  A
O778        C790   1.269       .  A
O779        C792   1.267       .  A
C780        O785   1.270       .  A
C780       C1208   1.439       .  S
C781       C1189   1.439       .  S
O783        C786   1.267       .  A
O784        C786   1.265       .  A
C786       C1184   1.434       .  S
O787        C792   1.265       .  A
O788        C790   1.267       .  A
C789        O791   1.270       .  A
C789       C1240   1.439       .  S
C790       C1172   1.439       .  S
C792       C1176   1.433       .  S
Fe793       O809   2.056       .  S
Fe793       O799   2.054       .  S
Fe793       O806   2.056       .  S
Fe793       O798   2.055       .  S
Fe793       O804   1.977       .  S
Fe794       O797   2.063       .  S
Fe794       O801   2.069       .  S
Fe794       O805   2.071       .  S
Fe794       O810   2.061       .  S
Fe794       O804   1.986       .  S
Fe795       O813   2.077       .  S
Fe795       O800   2.076       .  S
Fe795       O807   2.082       .  S
Fe795       O796   2.082       .  S
Fe795       O804   1.989       .  S
O796        C803   1.270       .  A
O797        C811   1.267       .  A
O798        C803   1.265       .  A
O799        C802   1.265       .  A
O800        C812   1.269       .  A
O801        C814   1.267       .  A
C802        O807   1.270       .  A
C802       C1157   1.438       .  S
C803       C1156   1.439       .  S
O805        C808   1.267       .  A
O806        C808   1.265       .  A
C808       C1168   1.434       .  S
O809        C814   1.265       .  A
O810        C812   1.267       .  A
C811        O813   1.270       .  A
C811       C1465   1.439       .  S
C812       C1149   1.438       .  S
C814       C1164   1.433       .  S
Fe815       O831   2.056       .  S
Fe815       O821   2.054       .  S
Fe815       O828   2.056       .  S
Fe815       O820   2.055       .  S
Fe815       O826   1.977       .  S
Fe816       O819   2.062       .  S
Fe816       O823   2.070       .  S
Fe816       O827   2.071       .  S
Fe816       O832   2.061       .  S
Fe816       O826   1.986       .  S
Fe817       O835   2.077       .  S
Fe817       O822   2.077       .  S
Fe817       O829   2.082       .  S
Fe817       O818   2.082       .  S
Fe817       O826   1.989       .  S
O818        C825   1.270       .  A
O819        C833   1.267       .  A
O820        C825   1.265       .  A
O821        C824   1.265       .  A
O822        C834   1.269       .  A
O823        C836   1.267       .  A
C824        O829   1.270       .  A
C824       C1144   1.438       .  S
C825       C1137   1.439       .  S
O827        C830   1.267       .  A
O828        C830   1.266       .  A
C830       C1145   1.434       .  S
O831        C836   1.265       .  A
O832        C834   1.267       .  A
C833        O835   1.270       .  A
C833       C1133   1.439       .  S
C834       C1241   1.439       .  S
C836       C1165   1.434       .  S
Fe837       O853   2.056       .  S
Fe837       O843   2.055       .  S
Fe837       O850   2.056       .  S
Fe837       O842   2.055       .  S
Fe837       O848   1.977       .  S
Fe838       O841   2.061       .  S
Fe838       O845   2.071       .  S
Fe838       O849   2.069       .  S
Fe838       O854   2.063       .  S
Fe838       O848   1.986       .  S
Fe839       O857   2.076       .  S
Fe839       O844   2.076       .  S
Fe839       O851   2.082       .  S
Fe839       O840   2.081       .  S
Fe839       O848   1.989       .  S
O840        C847   1.269       .  A
O841        C855   1.267       .  A
O842        C847   1.265       .  A
O843        C846   1.265       .  A
O844        C856   1.269       .  A
O845        C858   1.267       .  A
C846        O851   1.270       .  A
C846       C1132   1.439       .  S
C847       C1125   1.439       .  S
O849        C852   1.267       .  A
O850        C852   1.265       .  A
C852       C1161   1.433       .  S
O853        C858   1.265       .  A
O854        C856   1.267       .  A
C855        O857   1.269       .  A
C855       C1236   1.438       .  S
C856       C1457   1.439       .  S
C858       C1148   1.434       .  S
Fe859       O875   2.056       .  S
Fe859       O865   2.054       .  S
Fe859       O872   2.056       .  S
Fe859       O864   2.054       .  S
Fe859       O870   1.977       .  S
Fe860       O863   2.061       .  S
Fe860       O867   2.070       .  S
Fe860       O871   2.070       .  S
Fe860       O876   2.061       .  S
Fe860       O870   1.986       .  S
Fe861       O879   2.078       .  S
Fe861       O866   2.078       .  S
Fe861       O873   2.083       .  S
Fe861       O862   2.082       .  S
Fe861       O870   1.989       .  S
O862        C869   1.270       .  A
O863        C877   1.267       .  A
O864        C869   1.265       .  A
O865        C868   1.265       .  A
O866        C878   1.270       .  A
O867        C880   1.267       .  A
C868        O873   1.270       .  A
C868       C1160   1.438       .  S
C869       C1128   1.439       .  S
O871        C874   1.267       .  A
O872        C874   1.265       .  A
C874       C1117   1.433       .  S
O875        C880   1.265       .  A
O876        C878   1.267       .  A
C877        O879   1.270       .  A
C877       C1264   1.439       .  S
C878       C1116   1.439       .  S
C880       C1124   1.434       .  S
Fe881       O897   2.056       .  S
Fe881       O887   2.053       .  S
Fe881       O894   2.055       .  S
Fe881       O886   2.055       .  S
Fe881       O892   1.977       .  S
Fe882       O885   2.062       .  S
Fe882       O889   2.069       .  S
Fe882       O893   2.070       .  S
Fe882       O898   2.061       .  S
Fe882       O892   1.986       .  S
Fe883       O901   2.077       .  S
Fe883       O888   2.078       .  S
Fe883       O895   2.084       .  S
Fe883       O884   2.082       .  S
Fe883       O892   1.988       .  S
O884        C891   1.270       .  A
O885        C899   1.267       .  A
O886        C891   1.265       .  A
O887        C890   1.265       .  A
O888        C900   1.270       .  A
O889        C902   1.267       .  A
C890        O895   1.270       .  A
C890       C1129   1.439       .  S
C891       C1140   1.439       .  S
O893        C896   1.267       .  A
O894        C896   1.265       .  A
C896       C1109   1.433       .  S
O897        C902   1.265       .  A
O898        C900   1.267       .  A
C899        O901   1.269       .  A
C899       C1108   1.439       .  S
C900       C1500   1.439       .  S
C902       C1120   1.433       .  S
Fe903       O919   2.055       .  S
Fe903       O909   2.054       .  S
Fe903       O916   2.056       .  S
Fe903       O908   2.054       .  S
Fe903       O914   1.977       .  S
Fe904       O907   2.062       .  S
Fe904       O911   2.069       .  S
Fe904       O915   2.071       .  S
Fe904       O920   2.061       .  S
Fe904       O914   1.986       .  S
Fe905       O923   2.078       .  S
Fe905       O910   2.077       .  S
Fe905       O917   2.082       .  S
Fe905       O906   2.083       .  S
Fe905       O914   1.989       .  S
O906        C913   1.270       .  A
O907        C921   1.267       .  A
O908        C913   1.265       .  A
O909        C912   1.265       .  A
O910        C922   1.269       .  A
O911        C924   1.267       .  A
C912        O917   1.270       .  A
C912       C1141   1.438       .  S
C913       C1153   1.439       .  S
O915        C918   1.267       .  A
O916        C918   1.265       .  A
C918       C1121   1.434       .  S
O919        C924   1.265       .  A
O920        C922   1.267       .  A
C921        O923   1.270       .  A
C921       C1488   1.440       .  S
C922       C1296   1.439       .  S
C924       C1112   1.433       .  S
Fe925       O941   2.056       .  S
Fe925       O931   2.054       .  S
Fe925       O938   2.056       .  S
Fe925       O930   2.055       .  S
Fe925       O936   1.977       .  S
Fe926       O929   2.062       .  S
Fe926       O933   2.069       .  S
Fe926       O937   2.070       .  S
Fe926       O942   2.061       .  S
Fe926       O936   1.986       .  S
Fe927       O945   2.077       .  S
Fe927       O932   2.076       .  S
Fe927       O939   2.082       .  S
Fe927       O928   2.082       .  S
Fe927       O936   1.989       .  S
O928        C935   1.270       .  A
O929        C943   1.267       .  A
O930        C935   1.265       .  A
O931        C934   1.265       .  A
O932        C944   1.269       .  A
O933        C946   1.267       .  A
C934        O939   1.270       .  A
C934       C1097   1.438       .  S
C935       C1089   1.439       .  S
O937        C940   1.267       .  A
O938        C940   1.265       .  A
C940       C1093   1.433       .  S
O941        C946   1.265       .  A
O942        C944   1.267       .  A
C943        O945   1.269       .  A
C943       C1388   1.439       .  S
C944       C1177   1.439       .  S
C946       C1104   1.433       .  S
Fe947       O963   2.055       .  S
Fe947       O953   2.054       .  S
Fe947       O960   2.055       .  S
Fe947       O952   2.054       .  S
Fe947       O958   1.977       .  S
Fe948       O951   2.062       .  S
Fe948       O955   2.070       .  S
Fe948       O959   2.070       .  S
Fe948       O964   2.062       .  S
Fe948       O958   1.986       .  S
Fe949       O967   2.077       .  S
Fe949       O954   2.077       .  S
Fe949       O961   2.083       .  S
Fe949       O950   2.082       .  S
Fe949       O958   1.989       .  S
O950        C957   1.270       .  A
O951        C965   1.267       .  A
O952        C957   1.265       .  A
O953        C956   1.265       .  A
O954        C966   1.270       .  A
O955        C968   1.267       .  A
C956        O961   1.270       .  A
C956       C1100   1.438       .  S
C957       C1081   1.439       .  S
O959        C962   1.267       .  A
O960        C962   1.265       .  A
C962       C1080   1.433       .  S
O963        C968   1.265       .  A
O964        C966   1.267       .  A
C965        O967   1.269       .  A
C965       C1113   1.439       .  S
C966       C1216   1.439       .  S
C968       C1088   1.433       .  S
Fe969       O985   2.056       .  S
Fe969       O975   2.054       .  S
Fe969       O982   2.056       .  S
Fe969       O974   2.054       .  S
Fe969       O980   1.977       .  S
Fe970       O973   2.060       .  S
Fe970       O977   2.070       .  S
Fe970       O981   2.070       .  S
Fe970       O986   2.061       .  S
Fe970       O980   1.986       .  S
Fe971       O989   2.078       .  S
Fe971       O976   2.077       .  S
Fe971       O983   2.083       .  S
Fe971       O972   2.083       .  S
Fe971       O980   1.989       .  S
O972        C979   1.270       .  A
O973        C987   1.267       .  A
O974        C979   1.265       .  A
O975        C978   1.265       .  A
O976        C988   1.270       .  A
O977        C990   1.267       .  A
C978        O983   1.270       .  A
C978       C1073   1.438       .  S
C979       C1092   1.439       .  S
O981        C984   1.267       .  A
O982        C984   1.265       .  A
C984       C1085   1.433       .  S
O985        C990   1.265       .  A
O986        C988   1.267       .  A
C987        O989   1.270       .  A
C987       C1440   1.439       .  S
C988       C1105   1.439       .  S
C990       C1069   1.434       .  S
Fe991      O1007   2.056       .  S
Fe991       O997   2.054       .  S
Fe991      O1004   2.056       .  S
Fe991       O996   2.054       .  S
Fe991      O1002   1.977       .  S
Fe992       O995   2.062       .  S
Fe992       O999   2.070       .  S
Fe992      O1003   2.071       .  S
Fe992      O1008   2.061       .  S
Fe992      O1002   1.986       .  S
Fe993      O1011   2.077       .  S
Fe993       O998   2.077       .  S
Fe993      O1005   2.082       .  S
Fe993       O994   2.083       .  S
Fe993      O1002   1.989       .  S
O994       C1001   1.270       .  A
O995       C1009   1.267       .  A
O996       C1001   1.265       .  A
O997       C1000   1.265       .  A
O998       C1010   1.269       .  A
O999       C1012   1.267       .  A
C1000      O1005   1.270       .  A
C1000      C1068   1.438       .  S
C1001      C1064   1.439       .  S
O1003      C1006   1.267       .  A
O1004      C1006   1.265       .  A
C1006      C1072   1.434       .  S
O1007      C1012   1.265       .  A
O1008      C1010   1.267       .  A
C1009      O1011   1.270       .  A
C1009      C1200   1.439       .  S
C1010      C1420   1.439       .  S
C1012      C1077   1.433       .  S
Fe1013     O1029   2.056       .  S
Fe1013     O1019   2.054       .  S
Fe1013     O1026   2.056       .  S
Fe1013     O1018   2.055       .  S
Fe1013     O1024   1.977       .  S
Fe1014     O1017   2.062       .  S
Fe1014     O1021   2.070       .  S
Fe1014     O1025   2.070       .  S
Fe1014     O1030   2.061       .  S
Fe1014     O1024   1.986       .  S
Fe1015     O1033   2.077       .  S
Fe1015     O1020   2.077       .  S
Fe1015     O1027   2.082       .  S
Fe1015     O1016   2.082       .  S
Fe1015     O1024   1.989       .  S
O1016      C1023   1.270       .  A
O1017      C1031   1.267       .  A
O1018      C1023   1.265       .  A
O1019      C1022   1.265       .  A
O1020      C1032   1.269       .  A
O1021      C1034   1.267       .  A
C1022      O1027   1.270       .  A
C1022      C1076   1.438       .  S
C1023      C1061   1.439       .  S
O1025      C1028   1.267       .  A
O1026      C1028   1.265       .  A
C1028      C1060   1.434       .  S
O1029      C1034   1.265       .  A
O1030      C1032   1.267       .  A
C1031      O1033   1.269       .  A
C1031      C1169   1.439       .  S
C1032      C1136   1.439       .  S
C1034      C1096   1.433       .  S
Fe1035     O1051   2.056       .  S
Fe1035     O1041   2.054       .  S
Fe1035     O1048   2.055       .  S
Fe1035     O1040   2.055       .  S
Fe1035     O1046   1.976       .  S
Fe1036     O1039   2.061       .  S
Fe1036     O1043   2.070       .  S
Fe1036     O1047   2.070       .  S
Fe1036     O1052   2.061       .  S
Fe1036     O1046   1.986       .  S
Fe1037     O1055   2.076       .  S
Fe1037     O1042   2.077       .  S
Fe1037     O1049   2.082       .  S
Fe1037     O1038   2.082       .  S
Fe1037     O1046   1.989       .  S
O1038      C1045   1.270       .  A
O1039      C1053   1.267       .  A
O1040      C1045   1.265       .  A
O1041      C1044   1.265       .  A
O1042      C1054   1.269       .  A
O1043      C1056   1.267       .  A
C1044      O1049   1.270       .  A
C1044      C1065   1.438       .  S
C1045      C1084   1.439       .  S
O1047      C1050   1.267       .  A
O1048      C1050   1.265       .  A
C1050      C1101   1.433       .  S
O1051      C1056   1.265       .  A
O1052      C1054   1.267       .  A
C1053      O1055   1.269       .  A
C1053      C1152   1.438       .  S
C1054      C1380   1.439       .  S
C1056      C1057   1.433       .  S
C1057      C1058   1.205       .  T
C1058      C1059   1.410       .  S
C1059      C1060   1.205       .  T
C1061      C1062   1.208       .  T
C1062      C1063   1.416       .  S
C1063      C1064   1.208       .  T
C1065      C1066   1.208       .  T
C1066      C1067   1.415       .  S
C1067      C1068   1.208       .  T
C1069      C1070   1.205       .  T
C1070      C1071   1.410       .  S
C1071      C1072   1.205       .  T
C1073      C1074   1.208       .  T
C1074      C1075   1.415       .  S
C1075      C1076   1.208       .  T
C1077      C1078   1.205       .  T
C1078      C1079   1.410       .  S
C1079      C1080   1.205       .  T
C1081      C1082   1.208       .  T
C1082      C1083   1.416       .  S
C1083      C1084   1.208       .  T
C1085      C1086   1.205       .  T
C1086      C1087   1.410       .  S
C1087      C1088   1.205       .  T
C1089      C1090   1.208       .  T
C1090      C1091   1.416       .  S
C1091      C1092   1.208       .  T
C1093      C1094   1.205       .  T
C1094      C1095   1.410       .  S
C1095      C1096   1.205       .  T
C1097      C1098   1.208       .  T
C1098      C1099   1.415       .  S
C1099      C1100   1.208       .  T
C1101      C1102   1.205       .  T
C1102      C1103   1.410       .  S
C1103      C1104   1.205       .  T
C1105      C1106   1.208       .  T
C1106      C1107   1.416   1_565  S
C1107      C1108   1.208       .  T
C1109      C1110   1.204       .  T
C1110      C1111   1.410       .  S
C1111      C1112   1.204       .  T
C1113      C1114   1.208       .  T
C1114      C1115   1.416   1_565  S
C1115      C1116   1.208       .  T
C1117      C1118   1.204       .  T
C1118      C1119   1.410       .  S
C1119      C1120   1.204       .  T
C1121      C1122   1.205       .  T
C1122      C1123   1.410       .  S
C1123      C1124   1.205       .  T
C1125      C1126   1.208       .  T
C1126      C1127   1.416       .  S
C1127      C1128   1.208       .  T
C1129      C1130   1.208       .  T
C1130      C1131   1.416       .  S
C1131      C1132   1.208       .  T
C1133      C1134   1.208       .  T
C1134      C1135   1.416       .  S
C1135      C1136   1.208       .  T
C1137      C1138   1.208       .  T
C1138      C1139   1.416       .  S
C1139      C1140   1.208       .  T
C1141      C1142   1.208       .  T
C1142      C1143   1.415       .  S
C1143      C1144   1.208       .  T
C1145      C1146   1.205       .  T
C1146      C1147   1.410       .  S
C1147      C1148   1.205       .  T
C1149      C1150   1.208       .  T
C1150      C1151   1.415       .  S
C1151      C1152   1.208       .  T
C1153      C1154   1.208       .  T
C1154      C1155   1.416       .  S
C1155      C1156   1.208       .  T
C1157      C1158   1.208       .  T
C1158      C1159   1.415       .  S
C1159      C1160   1.208       .  T
C1161      C1162   1.204       .  T
C1162      C1163   1.410       .  S
C1163      C1164   1.204       .  T
C1165      C1166   1.205       .  T
C1166      C1167   1.410       .  S
C1167      C1168   1.205       .  T
C1169      C1170   1.208       .  T
C1170      C1171   1.416       .  S
C1171      C1172   1.208       .  T
C1173      C1174   1.205       .  T
C1174      C1175   1.410       .  S
C1175      C1176   1.205       .  T
C1177      C1178   1.208       .  T
C1178      C1179   1.415       .  S
C1179      C1180   1.208       .  T
C1181      C1182   1.205       .  T
C1182      C1183   1.410       .  S
C1183      C1184   1.205       .  T
C1185      C1186   1.205       .  T
C1186      C1187   1.410       .  S
C1187      C1188   1.205       .  T
C1189      C1190   1.208       .  T
C1190      C1191   1.416       .  S
C1191      C1192   1.208       .  T
C1193      C1194   1.208       .  T
C1194      C1195   1.415       .  S
C1195      C1196   1.208       .  T
C1197      C1198   1.208       .  T
C1198      C1199   1.416   1_655  S
C1199      C1200   1.208       .  T
C1201      C1202   1.205       .  T
C1202      C1203   1.410       .  S
C1203      C1204   1.205       .  T
C1205      C1206   1.208       .  T
C1206      C1207   1.415       .  S
C1207      C1208   1.208       .  T
C1209      C1210   1.208       .  T
C1210      C1211   1.416       .  S
C1211      C1212   1.208       .  T
C1213      C1214   1.208       .  T
C1214      C1215   1.416   1_655  S
C1215      C1216   1.208       .  T
C1217      C1218   1.204       .  T
C1218      C1219   1.410       .  S
C1219      C1220   1.204       .  T
C1221      C1222   1.205       .  T
C1222      C1223   1.410       .  S
C1223      C1224   1.205       .  T
C1225      C1226   1.208       .  T
C1226      C1227   1.416       .  S
C1227      C1228   1.208       .  T
C1229      C1230   1.208       .  T
C1230      C1231   1.415       .  S
C1231      C1232   1.208       .  T
C1233      C1234   1.208       .  T
C1234      C1235   1.415       .  S
C1235      C1236   1.208       .  T
C1237      C1238   1.208       .  T
C1238      C1239   1.416       .  S
C1239      C1240   1.208       .  T
C1241      C1242   1.208       .  T
C1242      C1243   1.416       .  S
C1243      C1244   1.208       .  T
C1245      C1246   1.204       .  T
C1246      C1247   1.410       .  S
C1247      C1248   1.204       .  T
C1249      C1250   1.208       .  T
C1250      C1251   1.416   1_545  S
C1251      C1252   1.208       .  T
C1253      C1254   1.208       .  T
C1254      C1255   1.416       .  S
C1255      C1256   1.208       .  T
C1257      C1258   1.208       .  T
C1258      C1259   1.415       .  S
C1259      C1260   1.208       .  T
C1261      C1262   1.208       .  T
C1262      C1263   1.416   1_655  S
C1263      C1264   1.208       .  T
C1265      C1266   1.208       .  T
C1266      C1267   1.415   1_565  S
C1267      C1268   1.208       .  T
C1269      C1270   1.205       .  T
C1270      C1271   1.410       .  S
C1271      C1272   1.205       .  T
C1273      C1274   1.208       .  T
C1274      C1275   1.415       .  S
C1275      C1276   1.208       .  T
C1277      C1278   1.208       .  T
C1278      C1279   1.415       .  S
C1279      C1280   1.208       .  T
C1281      C1282   1.205       .  T
C1282      C1283   1.410       .  S
C1283      C1284   1.205       .  T
C1285      C1286   1.208       .  T
C1286      C1287   1.416       .  S
C1287      C1288   1.208       .  T
C1289      C1290   1.204       .  T
C1290      C1291   1.410       .  S
C1291      C1292   1.204       .  T
C1293      C1294   1.208       .  T
C1294      C1295   1.415   1_655  S
C1295      C1296   1.208       .  T
C1297      C1298   1.205       .  T
C1298      C1299   1.410       .  S
C1299      C1300   1.205       .  T
C1301      C1302   1.204       .  T
C1302      C1303   1.410       .  S
C1303      C1304   1.204       .  T
C1305      C1306   1.208       .  T
C1306      C1307   1.415       .  S
C1307      C1308   1.208       .  T
C1309      C1310   1.208       .  T
C1310      C1311   1.415       .  S
C1311      C1312   1.208       .  T
C1313      C1314   1.208       .  T
C1314      C1315   1.416       .  S
C1315      C1316   1.208       .  T
C1317      C1318   1.204       .  T
C1318      C1319   1.410       .  S
C1319      C1320   1.204       .  T
C1321      C1322   1.208       .  T
C1322      C1323   1.416       .  S
C1323      C1324   1.208       .  T
C1325      C1326   1.205       .  T
C1326      C1327   1.410       .  S
C1327      C1328   1.205       .  T
C1329      C1330   1.205       .  T
C1330      C1331   1.410       .  S
C1331      C1332   1.205       .  T
C1333      C1334   1.208       .  T
C1334      C1335   1.416   1_554  S
C1335      C1336   1.208       .  T
C1337      C1338   1.208       .  T
C1338      C1339   1.416       .  S
C1339      C1340   1.208       .  T
C1341      C1342   1.208       .  T
C1342      C1343   1.415       .  S
C1343      C1344   1.208       .  T
C1345      C1346   1.208       .  T
C1346      C1347   1.415   1_556  S
C1347      C1348   1.208       .  T
C1349      C1350   1.208       .  T
C1350      C1351   1.415       .  S
C1351      C1352   1.208       .  T
C1353      C1354   1.208       .  T
C1354      C1355   1.416       .  S
C1355      C1356   1.208       .  T
C1357      C1358   1.205       .  T
C1358      C1359   1.411       .  S
C1359      C1360   1.205       .  T
C1361      C1362   1.208       .  T
C1362      C1363   1.416       .  S
C1363      C1364   1.208       .  T
C1365      C1366   1.204       .  T
C1366      C1367   1.410       .  S
C1367      C1368   1.204       .  T
C1369      C1370   1.207       .  T
C1370      C1371   1.415       .  S
C1371      C1372   1.207       .  T
C1373      C1374   1.205       .  T
C1374      C1375   1.410       .  S
C1375      C1376   1.205       .  T
C1377      C1378   1.208       .  T
C1378      C1379   1.416       .  S
C1379      C1380   1.208       .  T
C1381      C1382   1.208       .  T
C1382      C1383   1.416       .  S
C1383      C1384   1.208       .  T
C1385      C1386   1.208       .  T
C1386      C1387   1.416       .  S
C1387      C1388   1.208       .  T
C1389      C1390   1.205       .  T
C1390      C1391   1.410       .  S
C1391      C1392   1.205       .  T
C1393      C1394   1.208       .  T
C1394      C1395   1.415       .  S
C1395      C1396   1.208       .  T
C1397      C1398   1.204       .  T
C1398      C1399   1.410       .  S
C1399      C1400   1.204       .  T
C1401      C1402   1.205       .  T
C1402      C1403   1.411       .  S
C1403      C1404   1.205       .  T
C1405      C1406   1.208       .  T
C1406      C1407   1.415   1_655  S
C1407      C1408   1.208       .  T
C1409      C1410   1.208       .  T
C1410      C1411   1.416       .  S
C1411      C1412   1.208       .  T
C1413      C1414   1.208       .  T
C1414      C1415   1.416       .  S
C1415      C1416   1.208       .  T
C1417      C1418   1.208       .  T
C1418      C1419   1.416   1_556  S
C1419      C1420   1.208       .  T
C1421      C1422   1.208       .  T
C1422      C1423   1.416   1_455  S
C1423      C1424   1.208       .  T
C1425      C1426   1.208       .  T
C1426      C1427   1.416       .  S
C1427      C1428   1.208       .  T
C1429      C1430   1.208       .  T
C1430      C1431   1.415       .  S
C1431      C1432   1.207       .  T
C1433      C1434   1.205       .  T
C1434      C1435   1.410       .  S
C1435      C1436   1.205       .  T
C1437      C1438   1.208       .  T
C1438      C1439   1.415   1_556  S
C1439      C1440   1.208       .  T
C1441      C1442   1.205       .  T
C1442      C1443   1.410       .  S
C1443      C1444   1.205       .  T
C1445      C1446   1.204       .  T
C1446      C1447   1.410       .  S
C1447      C1448   1.204       .  T
C1449      C1450   1.208       .  T
C1450      C1451   1.416       .  S
C1451      C1452   1.208       .  T
C1453      C1454   1.208       .  T
C1454      C1455   1.415       .  S
C1455      C1456   1.208       .  T
C1457      C1458   1.208       .  T
C1458      C1459   1.416       .  S
C1459      C1460   1.208       .  T
C1461      C1462   1.208       .  T
C1462      C1463   1.416       .  S
C1463      C1464   1.208       .  T
C1465      C1466   1.208       .  T
C1466      C1467   1.416       .  S
C1467      C1468   1.208       .  T
C1469      C1470   1.204       .  T
C1470      C1471   1.410       .  S
C1471      C1472   1.204       .  T
C1473      C1474   1.208       .  T
C1474      C1475   1.416       .  S
C1475      C1476   1.208       .  T
C1477      C1478   1.204       .  T
C1478      C1479   1.410       .  S
C1479      C1480   1.204       .  T
C1481      C1482   1.205       .  T
C1482      C1483   1.410       .  S
C1483      C1484   1.205       .  T
C1485      C1486   1.208       .  T
C1486      C1487   1.416   1_556  S
C1487      C1488   1.208       .  T
C1489      C1490   1.208       .  T
C1490      C1491   1.416       .  S
C1491      C1492   1.208       .  T
C1493      C1494   1.208       .  T
C1494      C1495   1.416       .  S
C1495      C1496   1.208       .  T
C1497      C1498   1.208       .  T
C1498      C1499   1.416   1_556  S
C1499      C1500   1.208       .  T
C1501      C1502   1.208       .  T
C1502      C1503   1.416   1_565  S
C1503      C1504   1.208       .  T
C1505      C1506   1.205       .  T
C1506      C1507   1.410       .  S
C1507      C1508   1.205       .  T
C1509      C1510   1.208       .  T
C1510      C1511   1.416       .  S
C1511      C1512   1.208       .  T
C1513      C1514   1.208       .  T
C1514      C1515   1.416       .  S
C1515      C1516   1.208       .  T
C1517      C1518   1.208       .  T
C1518      C1519   1.416   1_545  S
C1519      C1520   1.208       .  T
C1521      C1522   1.208       .  T
C1522      C1523   1.416       .  S
C1523      C1524   1.208       .  T
C1525      C1526   1.208       .  T
C1526      C1527   1.416       .  S
C1527      C1528   1.208       .  T
C1529      C1530   1.205       .  T
C1530      C1531   1.410       .  S
C1531      C1532   1.205       .  T
C1533      C1534   1.205       .  T
C1534      C1535   1.410       .  S
C1535      C1536   1.205       .  T
C1537      C1538   1.208       .  T
C1538      C1539   1.415       .  S
C1539      C1540   1.208       .  T
C1541      C1542   1.208       .  T
C1542      C1543   1.416       .  S
C1543      C1544   1.208       .  T
C1545      C1546   1.208       .  T
C1546      C1547   1.416       .  S
C1547      C1548   1.208       .  T
C1549      C1550   1.208       .  T
C1550      C1551   1.416       .  S
C1551      C1552   1.208       .  T
C1553      C1554   1.205       .  T
C1554      C1555   1.410       .  S
C1555      C1556   1.205       .  T
C1557      C1558   1.208       .  T
C1558      C1559   1.416       .  S
C1559      C1560   1.208       .  T
C1561      C1562   1.208       .  T
C1562      C1563   1.415       .  S
C1563      C1564   1.208       .  T
C1565      C1566   1.205       .  T
C1566      C1567   1.410       .  S
C1567      C1568   1.205       .  T
C1569      C1570   1.205       .  T
C1570      C1571   1.410       .  S
C1571      C1572   1.205       .  T
C1573      C1574   1.208       .  T
C1574      C1575   1.416   1_455  S
C1575      C1576   1.208       .  T
C1577      C1578   1.208       .  T
C1578      C1579   1.416   1_565  S
C1579      C1580   1.208       .  T
C1581      C1582   1.208       .  T
C1582      C1583   1.416       .  S
C1583      C1584   1.208       .  T
C1585      C1586   1.208       .  T
C1586      C1587   1.415       .  S
C1587      C1588   1.208       .  T
C1589      C1590   1.208       .  T
C1590      C1591   1.416   1_554  S
C1591      C1592   1.208       .  T
C1593      C1594   1.208       .  T
C1594      C1595   1.416   1_545  S
C1595      C1596   1.208       .  T
C1597      C1598   1.208       .  T
C1598      C1599   1.415       .  S
C1599      C1600   1.208       .  T
C1601      C1602   1.208       .  T
C1602      C1603   1.416       .  S
C1603      C1604   1.208       .  T
C1605      C1606   1.204       .  T
C1606      C1607   1.409       .  S
C1607      C1608   1.204       .  T
C1609      C1610   1.208       .  T
C1610      C1611   1.416   1_554  S
C1611      C1612   1.208       .  T
C1613      C1614   1.208       .  T
C1614      C1615   1.416   1_655  S
C1615      C1616   1.208       .  T
C1617      C1618   1.204       .  T
C1618      C1619   1.410       .  S
C1619      C1620   1.204       .  T
C1621      C1622   1.205       .  T
C1622      C1623   1.410       .  S
C1623      C1624   1.205       .  T
C1625      C1626   1.208       .  T
C1626      C1627   1.416       .  S
C1627      C1628   1.208       .  T
C1629      C1630   1.208       .  T
C1630      C1631   1.415       .  S
C1631      C1632   1.208       .  T
