geometry optimzed in LAMMPS
_audit_creation_date              2020-11-30 
_audit_creation_method            'lammps2cif' 
_symmetry_space_group_name_H-M    'P1' 
_symmetry_Int_Tables_number       1 
_symmetry_cell_setting            triclinic 
loop_ 
_symmetry_equiv_pos_as_xyz 
  x,y,z 
_cell_length_a                    42.8441966 
_cell_length_b                    43.3304726612032 
_cell_length_c                    43.734342218603196 
_cell_angle_alpha                 90.2461147043875 
_cell_angle_beta                  89.6751402034876 
_cell_angle_gamma                 91.32432963816997 
loop_ 
_atom_site_label 
_atom_site_type_symbol 
_atom_site_fract_x 
_atom_site_fract_y 
_atom_site_fract_z 
_atom_site_charge 
C1          C  0.28494218  0.75157742  0.48860825     0.45100
H2          H  0.30888904  0.75757359  0.48070041    -0.03900
C3          C  0.22774200  0.74272393  0.50482428     0.45200
H4          H  0.20292016  0.73878455  0.51111283    -0.03900
C5          C  0.26546785  0.73379714  0.46422652    -0.17600
C6          C  0.28223066  0.73026272  0.51682829    -0.17300
C7          C  0.26801083  0.78143804  0.49631745    -0.17700
C8          C  0.23472270  0.73014807  0.47285420    -0.17700
C9          C  0.25107035  0.72563226  0.52571007    -0.17300
C10         C  0.23716232  0.77701902  0.50382554    -0.17600
C11         C  0.71759668  0.73374861  0.00042437     0.45100
H12         H  0.69220371  0.73070537  0.00261757    -0.03900
C13         C  0.77724025  0.74101787  0.99516974     0.45200
H14         H  0.80285865  0.74470391  0.99272187    -0.03900
C15         C  0.72813399  0.76796568  0.00075625    -0.17600
C16         C  0.73564230  0.71798003  0.02597717    -0.17300
C17         C  0.73032041  0.71835998  0.97128053    -0.17700
C18         C  0.76013028  0.77161308  0.99819490    -0.17700
C19         C  0.76752353  0.72175027  0.02343125    -0.17300
C20         C  0.76220770  0.72288905  0.96830934    -0.17600
C21         C  0.23349784  0.51530724  0.27768131     0.45100
H22         H  0.23420193  0.51783896  0.30290498    -0.03900
C23         C  0.23246679  0.50878235  0.21894427     0.45200
H24         H  0.23203779  0.50589671  0.19367072    -0.03900
C25         C  0.26626178  0.51597490  0.26209024    -0.17600
C26         C  0.21808611  0.48460474  0.26757712    -0.17300
C27         C  0.21332957  0.53976627  0.26201435    -0.17700
C28         C  0.26541458  0.51297649  0.23081349    -0.17700
C29         C  0.21782281  0.48104522  0.23637792    -0.17300
C30         C  0.21403090  0.53666117  0.23047808    -0.17600
C31         C  0.51369566  0.23921752  0.23325025     0.45100
H32         H  0.51594893  0.21403316  0.23681224    -0.03900
C33         C  0.51066221  0.29815043  0.22843526     0.45200
H34         H  0.51070178  0.32339764  0.22546352    -0.03900
C35         C  0.51169216  0.25620866  0.26404189    -0.17600
C36         C  0.54077226  0.25323702  0.21427691    -0.17300
C37         C  0.48454327  0.24875329  0.21548780    -0.17700
C38         C  0.51034969  0.28784216  0.26212543    -0.17700
C39         C  0.53961629  0.28478179  0.21256460    -0.17300
C40         C  0.48281403  0.28056932  0.21276760    -0.17600
C41         C  0.26960792  0.23136137  0.47861979     0.45100
H42         H  0.29556620  0.23168149  0.47896128    -0.03900
C43         C  0.20948033  0.23111004  0.47683892     0.45200
H44         H  0.18373883  0.23167761  0.47505344    -0.03900
C45         C  0.25593930  0.26301617  0.48391825    -0.17600
C46         C  0.25644468  0.21920544  0.44834946    -0.17300
C47         C  0.25426441  0.21012240  0.50292805    -0.17700
C48         C  0.22398062  0.26307705  0.48377009    -0.17700
C49         C  0.22444354  0.21859592  0.44730743    -0.17300
C50         C  0.22205655  0.21007463  0.50211218    -0.17600
C51         C  0.72273819  0.50182360  0.28442256     0.45100
H52         H  0.72375956  0.49840813  0.30953757    -0.03900
C53         C  0.72168898  0.51052998  0.22585802     0.45200
H54         H  0.72169381  0.51373794  0.20068002    -0.03900
C55         C  0.70445807  0.47602417  0.26705412    -0.17600
C56         C  0.70581223  0.53143629  0.27517454    -0.17300
C57         C  0.75522181  0.50405538  0.26959532    -0.17700
C58         C  0.70498000  0.48052777  0.23577587    -0.17700
C59         C  0.70452430  0.53572103  0.24386901    -0.17300
C60         C  0.75442939  0.50922201  0.23886255    -0.17600
C61         C  0.00213653  0.28543985  0.26971649     0.45100
H62         H  0.00266388  0.31105166  0.27130865    -0.03900
C63         C  0.00055549  0.22589286  0.26692417     0.45200
H64         H  0.00006318  0.20026645  0.26613153    -0.03900
C65         C  0.02954832  0.27073190  0.28645724    -0.17600
C66         C  0.97316178  0.27086221  0.28526612    -0.17300
C67         C  0.00279920  0.27305120  0.23671159    -0.17700
C68         C  0.02838985  0.23894297  0.28514252    -0.17700
C69         C  0.97207094  0.23904845  0.28380789    -0.17300
C70         C  0.00242547  0.24118166  0.23517510    -0.17600
C71         C  0.76713053  0.02281439  0.21084457     0.45100
H72         H  0.76818843  0.02596137  0.18576049    -0.03900
C73         C  0.76805048  0.01750332  0.26942716     0.45200
H74         H  0.76807679  0.01620174  0.29476754    -0.03900
C75         C  0.73410727  0.01701615  0.22407674    -0.17600
C76         C  0.78626333  0.99541365  0.22188219    -0.17300
C77         C  0.78197231  0.05101755  0.22716717    -0.17700
C78         C  0.73493231  0.01539169  0.25566628    -0.17700
C79         C  0.78747157  0.99253690  0.25334122    -0.17300
C80         C  0.78274844  0.04793020  0.25827709    -0.17600
C81         C  0.71755882  0.77687360  0.51970375     0.45100
H82         H  0.69233706  0.77345217  0.51505280    -0.03900
C83         C  0.77697057  0.78361273  0.52548911     0.45200
H84         H  0.80245530  0.78613837  0.52901865    -0.03900
C85         C  0.73275831  0.79584905  0.49388432    -0.17600
C86         C  0.72629323  0.79494991  0.54906870    -0.17300
C87         C  0.73450192  0.74628278  0.52083462    -0.17700
C88         C  0.76460760  0.79946039  0.49671572    -0.17700
C89         C  0.75840959  0.79873078  0.55179234    -0.17300
C90         C  0.76637053  0.74959997  0.52269754    -0.17600
C91         C  0.94481575  0.88688446  0.38575567     0.86200
C92         C  0.96381093  0.91027576  0.40518910    -0.54100
C93         C  0.94624896  0.93271152  0.41883633     0.09100
C94         C  0.91098713  0.92986495  0.41128751     0.20000
C95         C  0.91892618  0.87473199  0.40748662    -0.54800
C96         C  0.90156115  0.89700243  0.42063203     0.09200
C97         C  0.92681222  0.90660346  0.36303764    -0.54300
C98         C  0.90850877  0.92869964  0.37600741     0.09800
H99         H  0.98853828  0.90786156  0.40964709     0.14300
H100        H  0.89664961  0.94779781  0.42241213     0.00000
H101        H  0.91270235  0.85071140  0.41124366     0.14600
H102        H  0.92593378  0.90087345  0.33886288     0.14400
C103        C  0.86682445  0.10276108  0.44639924     0.86200
C104        C  0.86041788  0.07798097  0.42188372    -0.54100
C105        C  0.88463619  0.07309281  0.40230414     0.09100
C106        C  0.91518110  0.08936990  0.41231082     0.20000
C107        C  0.89368690  0.08907642  0.46463590    -0.54800
C108        C  0.91889376  0.08126362  0.44672643     0.09200
C109        C  0.88191423  0.13040218  0.42950533    -0.54300
C110        C  0.90712104  0.12375761  0.41189126     0.09800
H111        H  0.83761933  0.06773241  0.41728572     0.14300
H112        H  0.93562350  0.08341865  0.39789452     0.00000
H113        H  0.89259416  0.08499100  0.48909845     0.14600
H114        H  0.87246152  0.15346607  0.43051110     0.14400
C115        C  0.89761835  0.97003725  0.61756087     0.86200
C116        C  0.91059187  0.94059315  0.63212792    -0.54100
C117        C  0.91973304  0.91858176  0.61200846     0.09100
C118        C  0.91522893  0.92756489  0.57853975     0.20000
C119        C  0.92366074  0.98122326  0.59544787    -0.54800
C120        C  0.93322746  0.95897140  0.57495085     0.09200
C121        C  0.87153342  0.95730483  0.59667955    -0.54300
C122        C  0.88015505  0.93479517  0.57684729     0.09800
H123        H  0.91109202  0.93610459  0.65644565     0.14300
H124        H  0.92228315  0.90939011  0.56207746     0.00000
H125        H  0.93388082  0.00436267  0.59630938     0.14600
H126        H  0.84702679  0.96205702  0.60058371     0.14400
C127        C  0.08892033  0.04379650  0.38149589     0.86200
C128        C  0.06633345  0.03068437  0.40637754    -0.54100
C129        C  0.05447149  0.05330911  0.42555838     0.09100
C130        C  0.06725107  0.08645209  0.41805138     0.20000
C131        C  0.06907361  0.06819846  0.36573831    -0.54800
C132        C  0.05948996  0.09143905  0.38420569     0.09200
C133        C  0.11375502  0.06183632  0.39955637    -0.54300
C134        C  0.10290202  0.08414779  0.41816263     0.09800
H135        H  0.05979320  0.00641450  0.40816072     0.14300
H136        H  0.05860873  0.10498606  0.43329914     0.00000
H137        H  0.06442969  0.06831018  0.34136155     0.14600
H138        H  0.13866602  0.05895083  0.39579991     0.14400
C139        C  0.04053472  0.12679460  0.61447324     0.86200
C140        C  0.06194163  0.13891445  0.58861418    -0.54100
C141        C  0.08145226  0.11760818  0.57700609     0.09100
C142        C  0.07735373  0.08567723  0.59100323     0.20000
C143        C  0.02264193  0.09961815  0.59958541    -0.54800
C144        C  0.04185878  0.07819783  0.58634950     0.09200
C145        C  0.06196558  0.11180630  0.63745453    -0.54300
C146        C  0.08309489  0.09183079  0.62572210     0.09800
H147        H  0.06275063  0.16274626  0.58095673     0.14300
H148        H  0.09254270  0.06821138  0.58039893     0.00000
H149        H  0.99761384  0.09962370  0.59584271     0.14600
H150        H  0.06173738  0.11987296  0.66083744     0.14400
C151        C  0.12338555  0.90933956  0.55378816     0.86200
C152        C  0.09649137  0.92434062  0.53703444    -0.54100
C153        C  0.07356477  0.93506190  0.55606302     0.09100
C154        C  0.07966194  0.92926463  0.59054289     0.20000
C155        C  0.13451978  0.93385309  0.57717464    -0.54800
C156        C  0.11239663  0.94299122  0.59765440     0.09200
C157        C  0.10744581  0.88419944  0.57364566    -0.54300
C158        C  0.08451874  0.89430225  0.59266845     0.09800
H159        H  0.09541623  0.92599860  0.51229256     0.14300
H160        H  0.06101614  0.93805107  0.60578244     0.00000
H161        H  0.15887540  0.93884270  0.58196370     0.14600
H162        H  0.11532854  0.86055431  0.57411611     0.14400
O163        O  0.03296762  0.07078007  0.53292645    -0.81200
O164        O  0.96970669  0.97904216  0.44017979    -0.65900
O165        O  0.98459104  0.03283021  0.50901609    -1.12500
C166        C  0.04494430  0.94869239  0.54335011     1.05700
O167        O  0.95788176  0.94029077  0.47143145    -0.79100
O168        O  0.96478813  0.94217019  0.53326716    -0.66700
Ni169      Ni  0.99866721  0.07456002  0.50425472     1.34900
C170        C  0.95929531  0.96379247  0.55220944     0.84400
O171        O  0.94975966  0.03686857  0.45501373    -0.79700
O172        O  0.96401092  0.08213288  0.47737206    -0.89900
C173        C  0.95873387  0.95179934  0.44464760     0.84000
O174        O  0.02687241  0.06887792  0.47024200    -0.68100
O175        O  0.02866421  0.93191738  0.52503209    -0.87400
C176        C  0.03013357  0.04792179  0.45001780     0.84800
C177        C  0.94627537  0.06581812  0.45994406     1.06400
H178        H  0.02477484  0.98027746  0.48331335     0.38200
O179        O  0.00507059  0.98031180  0.49420123    -1.10100
O180        O  0.97524248  0.98902275  0.55262904    -0.66700
Ni181      Ni  0.01123572  0.00526460  0.53006153     1.26300
O182        O  0.01291174  0.02348052  0.44936207    -0.67000
O183        O  0.03904191  0.97683359  0.54943383    -0.79200
C184        C  0.03025297  0.05962730  0.55983662     0.84200
O185        O  0.01760571  0.03315305  0.56390730    -0.66400
Ni186      Ni  0.99299710  0.93797472  0.49902278     1.27400
Ni187      Ni  0.97762854  0.00765758  0.47352332     1.26100
H188        H  0.96498591  0.03369438  0.51990908     0.38700
C189        C  0.77924025  0.26602903  0.50041455     0.45100
H190        H  0.80443626  0.26260860  0.49565909    -0.03900
C191        C  0.72060785  0.27337804  0.51034685     0.45200
H192        H  0.69545284  0.27711238  0.51401402    -0.03900
C193        C  0.76054564  0.23543931  0.50297356    -0.17600
C194        C  0.77309756  0.28395145  0.53019887    -0.17300
C195        C  0.76308928  0.28509445  0.47553052    -0.17700
C196        C  0.72884865  0.23922151  0.50658153    -0.17700
C197        C  0.74159057  0.28811068  0.53554614    -0.17300
C198        C  0.73200228  0.28896321  0.48119176    -0.17600
C199        C  0.99691774  0.78660695  0.72620533     0.45100
H200        H  0.00074906  0.81197724  0.72516616    -0.03900
C201        C  0.98524862  0.72784065  0.73040376     0.45200
H202        H  0.97960448  0.70285851  0.73305178    -0.03900
C203        C  0.99774461  0.77431125  0.75863770    -0.17600
C204        C  0.96515126  0.77690012  0.71324502    -0.17300
C205        C  0.02024905  0.76712035  0.70782905    -0.17700
C206        C  0.99094923  0.74363539  0.76112812    -0.17700
C207        C  0.95901092  0.74577992  0.71490959    -0.17300
C208        C  0.01449352  0.73557303  0.71064282    -0.17600
C209        C  0.11274688  0.55668183  0.61069639     0.86200
C210        C  0.08661018  0.57481161  0.62607408    -0.54100
C211        C  0.07429295  0.59697914  0.60818537     0.09100
C212        C  0.08801307  0.59820007  0.57550509     0.20000
C213        C  0.09746968  0.54300019  0.58204403    -0.54800
C214        C  0.08413058  0.56452449  0.56359914     0.09200
C215        C  0.13596268  0.58101837  0.59865619    -0.54300
C216        C  0.12365453  0.60277827  0.58031074     0.09800
H217        H  0.07997802  0.57213709  0.64995161     0.14300
H218        H  0.07743612  0.61584633  0.56069609     0.00000
H219        H  0.09599809  0.51843078  0.57716414     0.14600
H220        H  0.16037830  0.58157043  0.60534136     0.14400
C221        C  0.12347183  0.39975765  0.45900717     0.86200
C222        C  0.13837032  0.41840559  0.43250530    -0.54100
C223        C  0.11810613  0.42719064  0.41057394     0.09100
C224        C  0.08393504  0.41753745  0.41740122     0.20000
C225        C  0.09767030  0.42005045  0.47179371    -0.54800
C226        C  0.07685797  0.42948260  0.45027721     0.09200
C227        C  0.10607974  0.37321162  0.44236341    -0.54300
C228        C  0.08557494  0.38218317  0.42064181     0.09800
H229        H  0.16323857  0.42220973  0.42929734     0.14300
H230        H  0.06724630  0.42510692  0.39975815     0.00000
H231        H  0.09661661  0.42729828  0.49557488     0.14600
H232        H  0.11145976  0.34907396  0.44565139     0.14400
C233        C  0.88186732  0.61579031  0.54646684     0.86200
C234        C  0.90625220  0.59664599  0.52973953    -0.54100
C235        C  0.92916963  0.58582590  0.54843637     0.09100
C236        C  0.92555600  0.59556760  0.58267640     0.20000
C237        C  0.87005484  0.59486148  0.57272059    -0.54800
C238        C  0.89222192  0.58551305  0.59264092     0.09200
C239        C  0.90091171  0.64118901  0.56303557    -0.54300
C240        C  0.92361528  0.63086533  0.58163924     0.09800
H241        H  0.90475404  0.59092211  0.50558961     0.14300
H242        H  0.94411911  0.58713569  0.59795070     0.00000
H243        H  0.84562683  0.59058159  0.57782168     0.14600
H244        H  0.89498424  0.66544699  0.56262915     0.14400
C245        C  0.89047924  0.45804424  0.38185092     0.86200
C246        C  0.90919467  0.47289385  0.40807307    -0.54100
C247        C  0.92155604  0.45199714  0.42797453     0.09100
C248        C  0.91366918  0.41784270  0.41972262     0.20000
C249        C  0.91352388  0.43566684  0.36702230    -0.54800
C250        C  0.92425697  0.41353013  0.38619735     0.09200
C251        C  0.86609242  0.43743712  0.39783472    -0.54300
C252        C  0.87789469  0.41673701  0.41754216     0.09800
H253        H  0.91215448  0.49768724  0.41098930     0.14300
H254        H  0.92308375  0.40074520  0.43589842     0.00000
H255        H  0.91932794  0.43557376  0.34286226     0.14600
H256        H  0.84117723  0.43878813  0.39352027     0.14400
C257        C  0.96863595  0.39085253  0.60347393     0.86200
C258        C  0.94068397  0.37328187  0.58891607    -0.54100
C259        C  0.91867778  0.39125990  0.57649251     0.09100
C260        C  0.92570603  0.42597950  0.57962051     0.20000
C261        C  0.98114157  0.41259941  0.57730026    -0.54800
C262        C  0.95868127  0.43121918  0.56444042     0.09200
C263        C  0.95260275  0.41258443  0.62618318    -0.54300
C264        C  0.92983077  0.43048459  0.61451087     0.09800
H265        H  0.93707649  0.34844313  0.58954633     0.14300
H266        H  0.90698835  0.44025262  0.56997537     0.00000
H267        H  0.00527280  0.41294703  0.56963561     0.14600
H268        H  0.95580015  0.41079762  0.65068477     0.14400
C269        C  0.04133951  0.62657179  0.39051304     0.86200
C270        C  0.02566916  0.60402809  0.41452493    -0.54100
C271        C  0.04704083  0.58637022  0.43044454     0.09100
C272        C  0.08156231  0.59339788  0.42018147     0.20000
C273        C  0.06502124  0.64528163  0.40968830    -0.54800
C274        C  0.08647336  0.62828537  0.42434861     0.09200
C275        C  0.06105884  0.60529066  0.37044172    -0.54300
C276        C  0.08312890  0.58893882  0.38517771     0.09800
H277        H  0.00068589  0.60230110  0.41851350     0.14300
H278        H  0.09922624  0.57986974  0.43243790     0.00000
H279        H  0.06621830  0.67037240  0.40971239     0.14600
H280        H  0.06017630  0.60667952  0.34568088     0.14400
O281        O  0.05982634  0.48098841  0.45218267    -0.81200
O282        O  0.97547459  0.56993502  0.52113736    -0.65900
O283        O  0.03004331  0.50298885  0.50368259    -1.12500
C284        C  0.93817098  0.46304417  0.45574828     1.05700
O285        O  0.94419000  0.53419792  0.54143295    -0.79100
O286        O  0.94092116  0.47213170  0.53314042    -0.66700
Ni287      Ni  0.06984236  0.50871837  0.48534829     1.34900
C288        C  0.96343152  0.45423088  0.53803776     0.84400
O289        O  0.03778501  0.56016324  0.53352632    -0.79700
O290        O  0.08139532  0.53529907  0.51875108    -0.89900
C291        C  0.95128946  0.56249080  0.53707602     0.84000
O292        O  0.06251695  0.54335764  0.45940837    -0.68100
O293        O  0.92330504  0.48174912  0.47292585    -0.87400
C294        C  0.04073857  0.56233977  0.45553741     0.84800
C295        C  0.06681052  0.55384864  0.53628723     1.06400
H296        H  0.97119699  0.52285705  0.46989850     0.38200
O297        O  0.97450106  0.51342055  0.48956688    -1.10100
O298        O  0.98829669  0.45548101  0.52128048    -0.66700
Ni299      Ni  0.99933642  0.47804524  0.48268369     1.26300
O300        O  0.01608804  0.56163732  0.47263278    -0.67000
O301        O  0.96684978  0.45604992  0.45978412    -0.79200
C302        C  0.05333378  0.45287245  0.45804145     0.84200
O303        O  0.02874681  0.44594213  0.47349552    -0.66400
Ni304      Ni  0.93448044  0.50737698  0.50737230     1.27400
Ni305      Ni  0.00511864  0.53826278  0.51084786     1.26100
H306        H  0.03359505  0.49359265  0.52331844     0.38700
C307        C  0.63090984  0.41595301  0.03939840     0.86200
C308        C  0.60183796  0.42723799  0.02298314    -0.54100
C309        C  0.57865079  0.43616506  0.04255573     0.09100
C310        C  0.58634233  0.43237683  0.07656783     0.20000
C311        C  0.63993373  0.44271095  0.06120574    -0.54800
C312        C  0.61725144  0.44988667  0.08185008     0.09200
C313        C  0.61871540  0.39006193  0.06074152    -0.54300
C314        C  0.59535008  0.39857552  0.07987533     0.09800
H315        H  0.59997126  0.42865649  0.99827737     0.14300
H316        H  0.56740309  0.43979049  0.09223495     0.00000
H317        H  0.66327044  0.45222622  0.06408063     0.14600
H318        H  0.62800737  0.36692914  0.06080107     0.14400
C319        C  0.53907671  0.62454080  0.11077982     0.86200
C320        C  0.55917120  0.64228672  0.08727743    -0.54100
C321        C  0.58452661  0.62710301  0.07660009     0.09100
C322        C  0.58234265  0.59224273  0.08426170     0.20000
C323        C  0.52535692  0.59789528  0.09183079    -0.54800
C324        C  0.54791563  0.58125241  0.07689969     0.09200
C325        C  0.56160084  0.60909957  0.13271568    -0.54300
C326        C  0.58428326  0.59215590  0.11941429     0.09800
H327        H  0.55588978  0.66668723  0.08310074     0.14300
H328        H  0.60027888  0.57835150  0.07252177     0.00000
H329        H  0.50050850  0.59423671  0.08815175     0.14600
H330        H  0.56072505  0.61350583  0.15718209     0.14400
C331        C  0.45153155  0.38266985  0.89342857     0.86200
C332        C  0.46794014  0.41081069  0.90809027    -0.54100
C333        C  0.44786417  0.43307440  0.91820649     0.09100
C334        C  0.41275215  0.42497965  0.91190331     0.20000
C335        C  0.42770989  0.37194045  0.91790361    -0.54800
C336        C  0.40627583  0.39309110  0.92624232     0.09200
C337        C  0.43118982  0.39619682  0.86803184    -0.54300
C338        C  0.41084017  0.41803291  0.87740828     0.09800
H339        H  0.49283036  0.41172798  0.91266684     0.14300
H340        H  0.39642890  0.44287416  0.91993584     0.00000
H341        H  0.42431267  0.34829908  0.92512933     0.14600
H342        H  0.43078116  0.38698343  0.84487877     0.14400
C343        C  0.37506898  0.61440416  0.94703668     0.86200
C344        C  0.36342328  0.58583930  0.92909192    -0.54100
C345        C  0.38469706  0.57401124  0.90947316     0.09100
C346        C  0.41698725  0.58953927  0.91127883     0.20000
C347        C  0.40360088  0.60230061  0.96446791    -0.54800
C348        C  0.42525815  0.58847746  0.94547360     0.09200
C349        C  0.38930566  0.63622231  0.92317578    -0.54300
C350        C  0.41121695  0.62367454  0.90465494     0.09800
H351        H  0.33946396  0.57713634  0.92940020     0.14300
H352        H  0.43456849  0.57885007  0.89602698     0.00000
H353        H  0.40575123  0.60306444  0.98917552     0.14600
H354        H  0.38156737  0.65977391  0.92043684     0.14400
C355        C  0.59730140  0.54899972  0.87323009     0.86200
C356        C  0.57231723  0.53485426  0.89582523    -0.54100
C357        C  0.56003304  0.55600263  0.91640609     0.09100
C358        C  0.57421586  0.58903296  0.91215510     0.20000
C359        C  0.58065239  0.57648828  0.85860739    -0.54800
C360        C  0.56917007  0.59743632  0.87866415     0.09200
C361        C  0.62154271  0.56517993  0.89410588    -0.54300
C362        C  0.60978515  0.58625575  0.91392799     0.09800
H363        H  0.56520400  0.51066426  0.89550848     0.14300
H364        H  0.56491861  0.60665008  0.92808787     0.00000
H365        H  0.58073872  0.58153597  0.83439279     0.14600
H366        H  0.64655099  0.56255471  0.89142856     0.14400
C367        C  0.39861330  0.46714474  0.10864968     0.86200
C368        C  0.41860388  0.44801916  0.12994882    -0.54100
C369        C  0.43514544  0.42514099  0.11655564     0.09100
C370        C  0.43232447  0.42522909  0.08138690     0.20000
C371        C  0.42298247  0.48120337  0.08589386    -0.54800
C372        C  0.44091697  0.45906893  0.07133680     0.09200
C373        C  0.38004686  0.44379820  0.08925130    -0.54300
C374        C  0.39704442  0.42132690  0.07597289     0.09800
H375        H  0.41654715  0.45052149  0.15457265     0.14300
H376        H  0.44624676  0.40712886  0.07003202     0.00000
H377        H  0.42562614  0.50574603  0.08148770     0.14600
H378        H  0.35466876  0.44348626  0.08841209     0.14400
O379        O  0.54311612  0.56932773  0.02388779    -0.81200
O380        O  0.47053459  0.48244407  0.93453512    -0.65900
O381        O  0.49126694  0.53614418  0.00222731    -1.12500
C382        C  0.54953102  0.44934028  0.03157288     1.05700
O383        O  0.45737545  0.44776065  0.96940108    -0.79100
O384        O  0.47246357  0.44362397  0.02933420    -0.66700
Ni385      Ni  0.50767878  0.57680787  0.99780058     1.34900
C386        C  0.46566047  0.46562007  0.04734816     0.84400
O387        O  0.45506951  0.54284374  0.95002829    -0.79700
O388        O  0.47171709  0.58682641  0.97383111    -0.89900
C389        C  0.45842625  0.45606094  0.94158921     0.84000
O390        O  0.53328144  0.57059143  0.96192591    -0.68100
O391        O  0.53372882  0.43361555  0.01205598    -0.87400
C392        C  0.53549522  0.54995862  0.94119456     0.84800
C393        C  0.45250830  0.57163941  0.95690325     1.06400
H394        H  0.52803058  0.48257778  0.97544185     0.38200
O395        O  0.50856783  0.48305579  0.98672396    -1.10100
O396        O  0.47924901  0.49214703  0.04551573    -0.66700
Ni397      Ni  0.51625109  0.50688229  0.02269850     1.26300
O398        O  0.51746108  0.52588491  0.94086982    -0.67000
O399        O  0.54231069  0.47628828  0.04100833    -0.79200
C400        C  0.53906716  0.56019257  0.05132212     0.84200
O401        O  0.52490927  0.53452988  0.05640866    -0.66400
Ni402      Ni  0.49536224  0.44133064  0.99132428     1.27400
Ni403      Ni  0.48196670  0.51170167  0.96686276     1.26100
H404        H  0.47200988  0.53808864  0.01354122     0.38700
C405        C  0.27432853  0.50308884  0.71243216     0.45100
H406        H  0.27457685  0.50780924  0.68749255    -0.03900
C407        C  0.27248849  0.49161560  0.77036315     0.45200
H408        H  0.27100842  0.48643126  0.79513796    -0.03900
C409        C  0.24147783  0.50254887  0.72580103    -0.17600
C410        C  0.28862599  0.47206479  0.72072716    -0.17300
C411        C  0.29318046  0.52690104  0.73177258    -0.17700
C412        C  0.24042562  0.49665927  0.75642117    -0.17700
C413        C  0.28891297  0.46633249  0.75172888    -0.17300
C414        C  0.29139062  0.52107621  0.76273368    -0.17600
C415        C  0.62226587  0.61833941  0.45418737     0.86200
C416        C  0.59711096  0.60051668  0.47276236    -0.54100
C417        C  0.57108337  0.59199225  0.45598913     0.09100
C418        C  0.57274160  0.60279773  0.42217009     0.20000
C419        C  0.62854757  0.59662999  0.42720630    -0.54800
C420        C  0.60324262  0.58955629  0.40995035     0.09200
C421        C  0.60522328  0.64562852  0.44058068    -0.54300
C422        C  0.57969454  0.63782958  0.42370917     0.09800
H423        H  0.60090917  0.59260506  0.49594028     0.14300
H424        H  0.55199568  0.59629264  0.40822957     0.00000
H425        H  0.65107729  0.58729908  0.42139203     0.14600
H426        H  0.61430051  0.66923654  0.44204507     0.14400
C427        C  0.60784630  0.45165405  0.62276085     0.86200
C428        C  0.59517207  0.47135963  0.59674468    -0.54100
C429        C  0.58327312  0.45386577  0.57288489     0.09100
C430        C  0.58674082  0.41850358  0.57695231     0.20000
C431        C  0.58003438  0.43016843  0.63057935    -0.54800
C432        C  0.57079506  0.41102539  0.60765887     0.09200
C433        C  0.63222300  0.43145320  0.60723523    -0.54300
C434        C  0.62161106  0.41415696  0.58323380     0.09800
H435        H  0.59409843  0.49635035  0.59766513     0.14300
H436        H  0.57724135  0.40465743  0.55756224     0.00000
H437        H  0.57064870  0.42729399  0.65353964     0.14600
H438        H  0.65561403  0.42933237  0.61637294     0.14400
C439        C  0.46742759  0.61639335  0.60841416     0.86200
C440        C  0.47876141  0.59386802  0.58339464    -0.54100
C441        C  0.45495601  0.57960736  0.56717283     0.09100
C442        C  0.42187513  0.58964233  0.57750837     0.20000
C443        C  0.44625015  0.63899803  0.59160761    -0.54800
C444        C  0.42208633  0.62523228  0.57607904     0.09200
C445        C  0.44367849  0.59735996  0.62754570    -0.54300
C446        C  0.42011842  0.58312385  0.61187570     0.09800
H447        H  0.50321222  0.58906554  0.57946673     0.14300
H448        H  0.40265471  0.57857521  0.56418637     0.00000
H449        H  0.44730375  0.66379981  0.59520551     0.14600
H450        H  0.44305516  0.59864512  0.65228915     0.14400
C451        C  0.38536059  0.55030387  0.39045430     0.86200
C452        C  0.40877414  0.57401894  0.37688656    -0.54100
C453        C  0.41956653  0.59552196  0.39707625     0.09100
C454        C  0.40752844  0.59099455  0.42985371     0.20000
C455        C  0.40293056  0.53588919  0.41687996    -0.54800
C456        C  0.41513840  0.55693525  0.43733564     0.09200
C457        C  0.36046525  0.57015292  0.40586263    -0.54300
C458        C  0.37165663  0.59147088  0.42619343     0.09800
H459        H  0.41472021  0.57653097  0.35299680     0.14300
H460        H  0.41696486  0.60830603  0.44638711     0.00000
H461        H  0.40612376  0.51118043  0.41888376     0.14600
H462        H  0.33592381  0.56874741  0.39968315     0.14400
C463        C  0.54089132  0.38898204  0.40798374     0.86200
C464        C  0.56494310  0.37208875  0.42764770    -0.54100
C465        C  0.58797906  0.39055138  0.43966152     0.09100
C466        C  0.58468437  0.42479836  0.43199924     0.20000
C467        C  0.52816415  0.41426976  0.42943139    -0.54800
C468        C  0.55106821  0.43302486  0.44239174     0.09200
C469        C  0.56165870  0.40642660  0.38479680    -0.54300
C470        C  0.58472609  0.42475622  0.39680571     0.09800
H471        H  0.56629773  0.34723379  0.42936264     0.14300
H472        H  0.60340081  0.43975159  0.44203671     0.00000
H473        H  0.50349402  0.41655928  0.43448254     0.14600
H474        H  0.56089281  0.40119979  0.36051435     0.14400
C475        C  0.38799858  0.38174348  0.53835821     0.86200
C476        C  0.37333596  0.40126699  0.56376414    -0.54100
C477        C  0.39364131  0.41195105  0.58505343     0.09100
C478        C  0.42767892  0.40401531  0.57848156     0.20000
C479        C  0.41276273  0.40373531  0.52417418    -0.54800
C480        C  0.43342406  0.41593552  0.54537629     0.09200
C481        C  0.40679236  0.35733049  0.55453282    -0.54300
C482        C  0.42699096  0.36836983  0.57586729     0.09800
H483        H  0.34846404  0.40549438  0.56549095     0.14300
H484        H  0.44433492  0.41334151  0.59576425     0.00000
H485        H  0.41234532  0.41122918  0.50053803     0.14600
H486        H  0.40188492  0.33272521  0.55169346     0.14400
O487        O  0.44259672  0.47030257  0.54478406    -0.81200
O488        O  0.52408826  0.57029042  0.47893192    -0.65900
O489        O  0.47359084  0.49786817  0.49564805    -1.12500
C490        C  0.56641975  0.46789563  0.54718554     1.05700
O491        O  0.56048707  0.53872868  0.46277966    -0.79100
O492        O  0.56680559  0.47695392  0.47209132    -0.66700
Ni493      Ni  0.43293367  0.49956468  0.51312100     1.34900
C494        C  0.54506871  0.45731605  0.46628375     0.84400
O495        O  0.46355273  0.55291422  0.46398701    -0.79700
O496        O  0.42049100  0.52692019  0.48116964    -0.89900
C497        C  0.55054501  0.56596307  0.46618324     0.84000
O498        O  0.43932590  0.53374841  0.54087331    -0.68100
O499        O  0.58054208  0.48954695  0.53254981    -0.87400
C500        C  0.45963880  0.55557760  0.54276559     0.84800
C501        C  0.43422890  0.54594635  0.46302174     1.06400
H502        H  0.52892465  0.52535774  0.53180622     0.38200
O503        O  0.52777294  0.51514178  0.51214125    -1.10100
O504        O  0.51910532  0.45712926  0.48071867    -0.66700
Ni505      Ni  0.50524876  0.47728021  0.51818802     1.26300
O506        O  0.48296562  0.55790812  0.52446107    -0.67000
O507        O  0.53832738  0.45865325  0.54159058    -0.79200
C508        C  0.45294177  0.44368557  0.53831451     0.84200
O509        O  0.47908438  0.44123413  0.52472837    -0.66400
Ni510      Ni  0.56951872  0.51350416  0.49749668     1.27400
Ni511      Ni  0.49670470  0.53526301  0.48813865     1.26100
H512        H  0.47107104  0.48751715  0.47618684     0.38700
C513        C  0.50576173  0.78863665  0.76266361     0.45100
H514        H  0.51050218  0.81358002  0.76104051    -0.03900
C515        C  0.49988774  0.72969268  0.76693337     0.45200
H516        H  0.49818996  0.70440369  0.76973967    -0.03900
C517        C  0.53413606  0.77348983  0.77772633    -0.17600
C518        C  0.47837260  0.77929977  0.78337458    -0.17300
C519        C  0.49810822  0.77297294  0.73174137    -0.17700
C520        C  0.53060792  0.74213356  0.78025288    -0.17700
C521        C  0.47464751  0.74749339  0.78552649    -0.17300
C522        C  0.49923945  0.74103874  0.73334020    -0.17600
C523        C  0.26726567  0.99854429  0.22938969     0.45100
H524        H  0.26763173  0.99432467  0.20451196    -0.03900
C525        C  0.26315364  0.00196400  0.28795851     0.45200
H526        H  0.26037785  0.00284107  0.31317705    -0.03900
C527        C  0.28113425  0.97067615  0.24497708    -0.17600
C528        C  0.28703857  0.02610592  0.24239994    -0.17300
C529        C  0.23376501  0.00269077  0.24074747    -0.17700
C530        C  0.27919799  0.97245108  0.27635270    -0.17700
C531        C  0.28402191  0.02842745  0.27418811    -0.17300
C532        C  0.23139390  0.00374251  0.27194715    -0.17600
C533        C  0.28058268  0.78404504  0.00607874     0.45100
H534        H  0.30629598  0.78550224  0.00320641    -0.03900
C535        C  0.22127687  0.77977293  0.01515182     0.45200
H536        H  0.19603259  0.77724999  0.02041241    -0.03900
C537        C  0.26793470  0.75038431  0.00762826    -0.17600
C538        C  0.27019829  0.80031437  0.03549052    -0.17300
C539        C  0.26182028  0.80053267  0.98073481    -0.17700
C540        C  0.23602586  0.74807406  0.01119929    -0.17700
C541        C  0.23858138  0.79826777  0.04037630    -0.17300
C542        C  0.22967635  0.79763814  0.98569721    -0.17600
C543        C  0.39821045  0.96791525  0.88389539     0.86200
C544        C  0.42066872  0.98255607  0.90824878    -0.54100
C545        C  0.43498395  0.96093549  0.92650749     0.09100
C546        C  0.42448897  0.92708823  0.91881050     0.20000
C547        C  0.41899593  0.94517637  0.86674264    -0.54800
C548        C  0.43198199  0.92360354  0.88475689     0.09200
C549        C  0.37535032  0.94754688  0.90243573    -0.54300
C550        C  0.38838860  0.92551560  0.92010843     0.09800
H551        H  0.42574955  0.00713091  0.91004038     0.14300
H552        H  0.43584972  0.90945014  0.93299037     0.00000
H553        H  0.42154346  0.94476460  0.84199890     0.14600
H554        H  0.35037974  0.94862232  0.89874397     0.14400
C555        C  0.61987792  0.90105719  0.95284682     0.86200
C556        C  0.63735303  0.92039228  0.92891746    -0.54100
C557        C  0.61994871  0.93322113  0.90641595     0.09100
C558        C  0.58440002  0.92480435  0.91039734     0.20000
C559        C  0.59460456  0.92173572  0.96563429    -0.54800
C560        C  0.57530493  0.93415346  0.94421450     0.09200
C561        C  0.60234272  0.87705402  0.93328838    -0.54300
C562        C  0.58402418  0.88887585  0.91101645     0.09800
H563        H  0.66240600  0.91915786  0.92690449     0.14300
H564        H  0.56916751  0.93442434  0.89252949     0.00000
H565        H  0.59116495  0.92497670  0.99006116     0.14600
H566        H  0.60562747  0.85237547  0.93549792     0.14400
C567        C  0.46636940  0.90166590  0.12775785     0.86200
C568        C  0.44066030  0.88013829  0.11442445    -0.54100
C569        C  0.41664903  0.89437104  0.10055184     0.09100
C570        C  0.42125751  0.92979254  0.09951924     0.20000
C571        C  0.47785280  0.92112202  0.10086694    -0.54800
C572        C  0.45473615  0.93596018  0.08576576     0.09200
C573        C  0.44783610  0.92390831  0.14805826    -0.54300
C574        C  0.42391260  0.93822157  0.13380338     0.09800
H575        H  0.43975917  0.85543865  0.11802870     0.14300
H576        H  0.40232829  0.94199027  0.08767774     0.00000
H577        H  0.50227316  0.92289929  0.09414802     0.14600
H578        H  0.45054934  0.92515283  0.17271017     0.14400
C579        C  0.37574654  0.11118358  0.06567850     0.86200
C580        C  0.40205883  0.09950154  0.04499181    -0.54100
C581        C  0.42511607  0.08476044  0.06077086     0.09100
C582        C  0.42007410  0.08433835  0.09609840     0.20000
C583        C  0.36511371  0.08253916  0.08343236    -0.54800
C584        C  0.38774323  0.06894242  0.10019765     0.09200
C585        C  0.39239281  0.13199854  0.08877463    -0.54300
C586        C  0.41484346  0.11839186  0.10553283     0.09800
H587        H  0.40194889  0.10118409  0.02025039     0.14300
H588        H  0.43861785  0.07269230  0.10902764     0.00000
H589        H  0.34067725  0.07535777  0.08481271     0.14600
H590        H  0.38627596  0.15603618  0.09154472     0.14400
C591        C  0.54507265  0.13270591  0.89509271     0.86200
C592        C  0.52764725  0.10602463  0.91093084    -0.54100
C593        C  0.54691423  0.08395427  0.92205385     0.09100
C594        C  0.58216367  0.09031736  0.91536317     0.20000
C595        C  0.56872905  0.14405406  0.91927547    -0.54800
C596        C  0.58982041  0.12276031  0.92798650     0.09200
C597        C  0.56514089  0.11730160  0.87030015    -0.54300
C598        C  0.58448916  0.09522881  0.88069120     0.09800
H599        H  0.50268875  0.10600888  0.91542493     0.14300
H600        H  0.59768834  0.07241669  0.92448075     0.00000
H601        H  0.57197619  0.16774691  0.92643623     0.14600
H602        H  0.56458067  0.12403928  0.84641421     0.14400
C603        C  0.59189289  0.04931478  0.12037528     0.86200
C604        C  0.57289292  0.07335511  0.13809118    -0.54100
C605        C  0.56401556  0.09840133  0.12179855     0.09100
C606        C  0.56891257  0.09336727  0.08698058     0.20000
C607        C  0.56889518  0.03717106  0.09617544    -0.54800
C608        C  0.55627556  0.05993827  0.07857518     0.09200
C609        C  0.61643311  0.06907742  0.10228530    -0.54300
C610        C  0.60449255  0.09179711  0.08466760     0.09800
H611        H  0.57136966  0.07376495  0.16279165     0.14300
H612        H  0.55873316  0.11195459  0.07307581     0.00000
H613        H  0.56296120  0.01283500  0.09338050     0.14600
H614        H  0.64145947  0.06667892  0.10457806     0.14400
O615        O  0.46024548  0.94410550  0.03187779    -0.81200
O616        O  0.52229761  0.03676203  0.93935405    -0.65900
O617        O  0.50801117  0.98239773  0.00717940    -1.12500
C618        C  0.45082660  0.06916910  0.04442985     1.05700
O619        O  0.53792274  0.07126920  0.97368047    -0.79100
O620        O  0.52710301  0.07469693  0.03505245    -0.66700
Ni621      Ni  0.49418145  0.94065199  0.00207247     1.34900
C622        C  0.53275768  0.05320266  0.05371714     0.84400
O623        O  0.54212929  0.97843854  0.95108440    -0.79700
O624        O  0.52858672  0.93345845  0.97376009    -0.89900
C625        C  0.53553459  0.06256987  0.94597396     0.84000
O626        O  0.46511541  0.94634552  0.96929226    -0.68100
O627        O  0.46551874  0.08488023  0.02402528    -0.87400
C628        C  0.46061240  0.96734585  0.94963622     0.84800
C629        C  0.54622883  0.94958790  0.95581344     1.06400
H630        H  0.46829108  0.03586553  0.98400593     0.38200
O631        O  0.48823003  0.03527684  0.99417303    -1.10100
O632        O  0.51899262  0.02664818  0.05203322    -0.66700
Ni633      Ni  0.48235401  0.01071296  0.02970513     1.26300
O634        O  0.47771492  0.99205216  0.94850067    -0.67000
O635        O  0.45635042  0.04078825  0.05042066    -0.79200
C636        C  0.46300412  0.95548847  0.05878123     0.84200
O637        O  0.47534687  0.98226560  0.06288772    -0.66400
Ni638      Ni  0.50164167  0.07709661  0.99908044     1.27400
Ni639      Ni  0.51442965  0.00747576  0.97165770     1.26100
H640        H  0.52790075  0.98148039  0.01739841     0.38700
C641        C  0.99914206  0.78870560  0.21829368     0.45100
H642        H  0.99978835  0.81418775  0.21612403    -0.03900
C643        C  0.99745680  0.72921794  0.22125911     0.45200
H644        H  0.99647534  0.70357560  0.22227855    -0.03900
C645        C  0.97015660  0.77459921  0.20275538    -0.17600
C646        C  0.02642212  0.77374773  0.20128203    -0.17300
C647        C  0.99989543  0.77648071  0.25156964    -0.17700
C648        C  0.96926436  0.74279486  0.20441355    -0.17700
C649        C  0.02569701  0.74196398  0.20275022    -0.17300
C650        C  0.99904797  0.74455167  0.25317633    -0.17600
C651        C  0.71505741  0.24255891  0.00119393     0.45100
H652        H  0.68940110  0.24236193  0.99870683    -0.03900
C653        C  0.77498313  0.24381643  0.00688842     0.45200
H654        H  0.80063130  0.24544499  0.01010214    -0.03900
C655        C  0.72580599  0.22477652  0.02957629    -0.17600
C656        C  0.73207932  0.22655349  0.97465186    -0.17300
C657        C  0.72945250  0.27542489  0.00244954    -0.17700
C658        C  0.75788297  0.22540823  0.03234760    -0.17700
C659        C  0.76411788  0.22704582  0.97754135    -0.17300
C660        C  0.76137697  0.27605863  0.00525374    -0.17600
C661        C  0.22894527  0.03019866  0.72577243     0.45100
H662        H  0.22825917  0.02872584  0.70065398    -0.03900
C663        C  0.23132874  0.02937748  0.78460723     0.45200
H664        H  0.23217368  0.02898973  0.81001117    -0.03900
C665        C  0.22055513  0.06190849  0.73963722    -0.17600
C666        C  0.20495156  0.00788017  0.73964661    -0.17300
C667        C  0.26057956  0.02053003  0.73840453    -0.17700
C668        C  0.22178261  0.06098411  0.77153480    -0.17700
C669        C  0.20627498  0.00683558  0.77103795    -0.17300
C670        C  0.26253534  0.02113143  0.76960308    -0.17600
C671        C  0.11483292  0.11168959  0.96505297     0.86200
C672        C  0.09226793  0.08547569  0.97441653    -0.54100
C673        C  0.07295945  0.07519223  0.95143739     0.09100
C674        C  0.07822195  0.09323888  0.92042924     0.20000
C675        C  0.13179643  0.09923718  0.93658446    -0.54800
C676        C  0.11323363  0.09050287  0.91284401     0.09200
C677        C  0.09410472  0.13711513  0.95174257    -0.54300
C678        C  0.07561906  0.12814870  0.92775869     0.09800
H679        H  0.09196324  0.07560338  0.99719481     0.14300
H680        H  0.06251050  0.08557177  0.90165833     0.00000
H681        H  0.15694695  0.09941447  0.93430815     0.14600
H682        H  0.09742594  0.16136436  0.95746415     0.14400
C683        C  0.10496724  0.96888741  0.12118104     0.86200
C684        C  0.08742372  0.98501401  0.09561227    -0.54100
C685        C  0.07829460  0.96581020  0.07207246     0.09100
C686        C  0.08823372  0.93158080  0.07644451     0.20000
C687        C  0.08309330  0.94188926  0.13066205    -0.54800
C688        C  0.07567854  0.92138746  0.10809214     0.09200
C689        C  0.13224955  0.95279034  0.10494730    -0.54300
C690        C  0.12369970  0.93346029  0.08169661     0.09800
H691        H  0.08069562  0.00898808  0.09711554     0.14300
H692        H  0.08107378  0.91575928  0.05757156     0.00000
H693        H  0.07719728  0.93635230  0.15409191     0.14600
H694        H  0.15624274  0.95449715  0.11281992     0.14400
C695        C  0.95676121  0.14190048  0.09401241     0.86200
C696        C  0.96983535  0.11233546  0.08026755    -0.54100
C697        C  0.94710529  0.09072506  0.07217146     0.09100
C698        C  0.91313005  0.10066887  0.08053757     0.20000
C699        C  0.93358729  0.15173678  0.06925881    -0.54800
C700        C  0.90812132  0.13263577  0.06589058     0.09200
C701        C  0.93685746  0.13041440  0.12134911    -0.54300
C702        C  0.91479111  0.10860347  0.11459519     0.09800
H703        H  0.99462608  0.10888578  0.07677490     0.14300
H704        H  0.89474986  0.08316932  0.07469760     0.00000
H705        H  0.93347121  0.17433078  0.05894145     0.14600
H706        H  0.93966327  0.13934467  0.14447798     0.14400
C707        C  0.88193103  0.90778577  0.03908378     0.86200
C708        C  0.86853916  0.92465197  0.06702136    -0.54100
C709        C  0.89009254  0.93512624  0.08722840     0.09100
C710        C  0.92370384  0.92989296  0.07740843     0.20000
C711        C  0.90395767  0.93292443  0.02461220    -0.54800
C712        C  0.92553694  0.94546095  0.04508134     0.09200
C713        C  0.90380455  0.88378551  0.05199796    -0.54300
C714        C  0.92498611  0.89442604  0.07270240     0.09800
H715        H  0.84385379  0.92880866  0.07049609     0.14300
H716        H  0.94091862  0.93889794  0.09430799     0.00000
H717        H  0.90133338  0.94136101  0.00146865     0.14600
H718        H  0.90004483  0.85922281  0.04775648     0.14400
C719        C  0.04746240  0.89118586  0.89049073     0.86200
C720        C  0.06193945  0.87427894  0.91742176    -0.54100
C721        C  0.08229791  0.89198848  0.93413100     0.09100
C722        C  0.08460908  0.92589873  0.92400348     0.20000
C723        C  0.03122224  0.91872209  0.90518101    -0.54800
C724        C  0.05061037  0.93692214  0.92278298     0.09200
C725        C  0.07512004  0.90560006  0.87309216    -0.54300
C726        C  0.09442917  0.92374846  0.89039247     0.09800
H727        H  0.05986302  0.84941771  0.92035651     0.14300
H728        H  0.10034619  0.94070341  0.93822366     0.00000
H729        H  0.00665789  0.92351188  0.90265243     0.14600
H730        H  0.07889464  0.90209943  0.84871449     0.14400
C731        C  0.88389044  0.05780376  0.88029886     0.86200
C732        C  0.91092148  0.07665606  0.86551629    -0.54100
C733        C  0.92580243  0.09667286  0.88481972     0.09100
C734        C  0.91423248  0.09439427  0.91800877     0.20000
C735        C  0.89952340  0.04054429  0.90670436    -0.54800
C736        C  0.91569577  0.05968472  0.92651335     0.09200
C737        C  0.86362618  0.08170754  0.89609982    -0.54300
C738        C  0.87934249  0.10117216  0.91539291     0.09800
H739        H  0.91595402  0.07655082  0.84114505     0.14300
H740        H  0.92739604  0.11008317  0.93368896     0.00000
H741        H  0.90051852  0.01557803  0.90791663     0.14600
H742        H  0.83883333  0.08355892  0.89153253     0.14400
O743        O  0.96842760  0.05082750  0.93763472    -0.81200
O744        O  0.06008903  0.98857318  0.02473911    -0.65900
O745        O  0.99013182  0.00218175  0.97194701    -1.12500
C746        C  0.95632946  0.06072671  0.05825499     1.05700
O747        O  0.02558232  0.97342671  0.05953891    -0.79100
O748        O  0.96425049  0.98162493  0.06148795    -0.66700
Ni749      Ni  0.99472693  0.01598709  0.93107832     1.34900
C750        C  0.94621684  0.97386271  0.03969712     0.84400
O751        O  0.04583296  0.96984098  0.96616741    -0.79700
O752        O  0.02005936  0.98098521  0.92266438    -0.89900
C753        C  0.05373433  0.97586237  0.05050876     0.84000
O754        O  0.03052695  0.04315353  0.93472668    -0.68100
O755        O  0.97521392  0.04466013  0.07379314    -0.87400
C756        C  0.04981241  0.04872235  0.95604350     0.84800
C757        C  0.03873764  0.96464270  0.93815300     1.06400
H758        H  0.01522387  0.04168524  0.02532909     0.38200
O759        O  0.00445203  0.02187103  0.02446754    -1.10100
O760        O  0.94530314  0.98947972  0.01483633    -0.66700
Ni761      Ni  0.96783290  0.02719262  0.00050317     1.26300
O762        O  0.04992332  0.03280544  0.98082962    -0.67000
O763        O  0.94802835  0.05387920  0.03077445    -0.79200
C764        C  0.94031709  0.04767193  0.94668211     0.84200
O765        O  0.93408690  0.03422695  0.97206546    -0.66400
Ni766      Ni  0.99987937  0.00885086  0.06558549     1.27400
Ni767      Ni  0.02641158  0.99628604  0.99614301     1.26100
H768        H  0.97942035  0.98235797  0.97055319     0.38700
C769        C  0.28023118  0.27105781  0.00257447     0.45100
H770        H  0.30558798  0.26811025  0.99865620    -0.03900
C771        C  0.22099040  0.27615891  0.01096406     0.45200
H772        H  0.19577207  0.27841871  0.01463648    -0.03900
C773        C  0.27251287  0.29078145  0.03094164    -0.17600
C774        C  0.26412760  0.28770741  0.97641727    -0.17300
C775        C  0.26287580  0.23998922  0.00649103    -0.17700
C776        C  0.24074253  0.29329349  0.03527044    -0.17700
C777        C  0.23242042  0.29069080  0.98056725    -0.17300
C778        C  0.23118224  0.24225814  0.01126272    -0.17600
C779        C  0.77439077  0.50611938  0.71940515     0.45100
H780        H  0.77376933  0.50857600  0.69411781    -0.03900
C781        C  0.77576691  0.50062761  0.77796856     0.45200
H782        H  0.77627337  0.49778026  0.80281578    -0.03900
C783        C  0.79194949  0.47730537  0.72949016    -0.17600
C784        C  0.79229525  0.53274669  0.73509213    -0.17300
C785        C  0.74176072  0.50479706  0.73464176    -0.17700
C786        C  0.79272790  0.47449995  0.76092744    -0.17700
C787        C  0.79307346  0.53014326  0.76652015    -0.17300
C788        C  0.74195674  0.50184190  0.76611551    -0.17600
C789        C  0.01694019  0.23466228  0.77319514     0.45100
H790        H  0.01844275  0.20945593  0.76911007    -0.03900
C791        C  0.01469624  0.29374836  0.77895209     0.45200
H792        H  0.01377529  0.31898393  0.78286297    -0.03900
C793        C  0.01645591  0.25229659  0.74252173    -0.17600
C794        C  0.98816993  0.24456684  0.79195051    -0.17300
C795        C  0.04443002  0.24789774  0.79199473    -0.17700
C796        C  0.01537398  0.28398735  0.74497391    -0.17700
C797        C  0.98660843  0.27645950  0.79404823    -0.17300
C798        C  0.04345318  0.27950679  0.79430653    -0.17600
C799        C  0.88615428  0.40716592  0.95284228     0.86200
C800        C  0.90695163  0.43316553  0.96713498    -0.54100
C801        C  0.92877169  0.44575174  0.94694660     0.09100
C802        C  0.92740826  0.43015547  0.91428803     0.20000
C803        C  0.87221583  0.42234283  0.92454385    -0.54800
C804        C  0.89330282  0.43302602  0.90356194     0.09200
C805        C  0.90949713  0.38395993  0.94057506    -0.54300
C806        C  0.93049063  0.39509854  0.91986661     0.09800
H807        H  0.90460115  0.44103151  0.99059312     0.14300
H808        H  0.94479637  0.43935991  0.89755359     0.00000
H809        H  0.84721605  0.42260723  0.92051531     0.14600
H810        H  0.90720705  0.35941873  0.94551656     0.14400
C811        C  0.12605282  0.47223206  0.88858622     0.86200
C812        C  0.10843731  0.44562931  0.87185591    -0.54100
C813        C  0.09418113  0.42467428  0.89059835     0.09100
C814        C  0.09770334  0.43254321  0.92457520     0.20000
C815        C  0.10197940  0.48675100  0.90968238    -0.54800
C816        C  0.08725407  0.46601731  0.92849092     0.09200
C817        C  0.14814268  0.45480855  0.90991773    -0.54300
C818        C  0.13321283  0.43375903  0.92844191     0.09800
H819        H  0.10980303  0.44132487  0.84748494     0.14300
H820        H  0.08533781  0.41589974  0.93989924     0.00000
H821        H  0.09647582  0.51109185  0.90926871     0.14600
H822        H  0.17342344  0.45653855  0.90823289     0.14400
C823        C  0.95633028  0.63329422  0.89951469     0.86200
C824        C  0.93444408  0.64703772  0.92389437    -0.54100
C825        C  0.91167182  0.62696982  0.93444440     0.09100
C826        C  0.91656327  0.59351389  0.92348509     0.20000
C827        C  0.97194808  0.60689642  0.91610724    -0.54800
C828        C  0.95130666  0.58590691  0.92874158     0.09200
C829        C  0.93462603  0.61721970  0.87642029    -0.54300
C830        C  0.91377293  0.59664892  0.88873777     0.09800
H831        H  0.93435994  0.67134187  0.92977536     0.14300
H832        H  0.90006427  0.57648719  0.93394843     0.00000
H833        H  0.99708665  0.60442806  0.91713229     0.14600
H834        H  0.93572701  0.62211496  0.85208137     0.14400
C835        C  0.05628488  0.38248948  0.10191311     0.86200
C836        C  0.03950587  0.40760926  0.08413392    -0.54100
C837        C  0.05862583  0.43224106  0.07573667     0.09100
C838        C  0.09297400  0.42964683  0.08701629     0.20000
C839        C  0.08411881  0.37456219  0.08104436    -0.54800
C840        C  0.10454214  0.39840099  0.07503687     0.09200
C841        C  0.07109574  0.39980721  0.12903778    -0.54300
C842        C  0.08987610  0.42425132  0.12162560     0.09800
H843        H  0.01473473  0.40634269  0.07903709     0.14300
H844        H  0.10845859  0.44960592  0.08087214     0.00000
H845        H  0.09030166  0.35151876  0.07428121     0.14600
H846        H  0.06857368  0.39199819  0.15255053     0.14400
C847        C  0.88605160  0.55032849  0.11578556     0.86200
C848        C  0.90334000  0.53312570  0.09039889    -0.54100
C849        C  0.91958435  0.55242683  0.07097483     0.09100
C850        C  0.91640564  0.58725726  0.07853211     0.20000
C851        C  0.91201991  0.57030439  0.13095386    -0.54800
C852        C  0.92616543  0.59139923  0.11210813     0.09200
C853        C  0.86548485  0.57311188  0.09897963    -0.54300
C854        C  0.88121314  0.59282281  0.07985194     0.09800
H855        H  0.90509870  0.50817763  0.08955423     0.14300
H856        H  0.92962932  0.60266377  0.06265476     0.00000
H857        H  0.91680648  0.57016858  0.15527803     0.14600
H858        H  0.84050641  0.57429287  0.10309903     0.14400
C859        C  0.12303545  0.60697746  0.04246859     0.86200
C860        C  0.13459367  0.59292619  0.07252618    -0.54100
C861        C  0.11169374  0.58311607  0.09184884     0.09100
C862        C  0.07873335  0.58794279  0.08026892     0.20000
C863        C  0.10095073  0.58148449  0.02877576    -0.54800
C864        C  0.07774924  0.57106410  0.04869571     0.09200
C865        C  0.10104679  0.63229101  0.05378773    -0.54300
C866        C  0.07845739  0.62293988  0.07395811     0.09800
H867        H  0.15879547  0.59192409  0.07944118     0.14300
H868        H  0.06045300  0.58018947  0.09681378     0.00000
H869        H  0.10406353  0.57197207  0.00600039     0.14600
H870        H  0.10583836  0.65667189  0.04983088     0.14400
O871        O  0.03374433  0.47170697  0.93829366    -0.81200
O872        O  0.93936465  0.52728267  0.02611929    -0.65900
O873        O  0.01078102  0.51796948  0.97473873    -1.12500
C874        C  0.04555893  0.45972145  0.06036652     1.05700
O875        O  0.97272797  0.54425920  0.06110056    -0.79100
O876        O  0.03504839  0.53827509  0.06363652    -0.66700
Ni877      Ni  0.00756651  0.50665869  0.93304600     1.34900
C878        C  0.05487365  0.54448757  0.04271236     0.84400
O879        O  0.95425652  0.54921771  0.96927998    -0.79700
O880        O  0.98263414  0.54224766  0.92618576    -0.89900
C881        C  0.94489866  0.54075980  0.05154241     0.84000
O882        O  0.97145123  0.47948244  0.93428965    -0.68100
O883        O  0.02622071  0.47555066  0.07596866    -0.87400
C884        C  0.95177562  0.47175873  0.95486905     0.84800
C885        C  0.96276597  0.55699501  0.94217769     1.06400
H886        H  0.98524814  0.47637214  0.02706258     0.38200
O887        O  0.99570382  0.49635084  0.02634540    -1.10100
O888        O  0.05582271  0.52875281  0.01790309    -0.66700
Ni889      Ni  0.03263798  0.49207653  0.00256836     1.26300
O890        O  0.95131303  0.48528852  0.98111035    -0.67000
O891        O  0.05230221  0.46518676  0.03218098    -0.79200
C892        C  0.06139710  0.47488723  0.94835609     0.84200
O893        O  0.06663925  0.48640956  0.97469299    -0.66400
Ni894      Ni  0.99990929  0.51005338  0.06740843     1.27400
Ni895      Ni  0.97371036  0.52186953  0.99828008     1.26100
H896        H  0.02106848  0.53804235  0.97480732     0.38700
C897        C  0.49691563  0.72704622  0.27421912     0.45100
H898        H  0.50006543  0.70166723  0.27306927    -0.03900
C899        C  0.48932453  0.78601390  0.27630028     0.45200
H900        H  0.48647840  0.81131136  0.27736603    -0.03900
C901        C  0.49507726  0.74169389  0.24287692    -0.17600
C902        C  0.46716991  0.73595566  0.29132724    -0.17300
C903        C  0.52336169  0.74466039  0.29115589    -0.17700
C904        C  0.49183327  0.77316309  0.24349246    -0.17700
C905        C  0.46304238  0.76746425  0.29295204    -0.17300
C906        C  0.51912040  0.77597469  0.29244555    -0.17600
C907        C  0.47021960  0.27892571  0.72987837     0.45100
H908        H  0.45983197  0.30187430  0.73286653    -0.03900
C909        C  0.49152113  0.22424411  0.72697775     0.45200
H910        H  0.50121068  0.20087958  0.72768220    -0.03900
C911        C  0.44823853  0.25602749  0.71257494    -0.17600
C912        C  0.50072302  0.27781921  0.71116820    -0.17300
C913        C  0.47806650  0.26613793  0.76121367    -0.17700
C914        C  0.45963166  0.22636966  0.71101992    -0.17700
C915        C  0.51218659  0.24811701  0.70907905    -0.17300
C916        C  0.48754682  0.23624693  0.75981582    -0.17600
C917        C  0.72615936  0.01081893  0.76719681     0.45100
H918        H  0.72792651  0.01047857  0.79247536    -0.03900
C919        C  0.72410363  0.01386284  0.70845242     0.45200
H920        H  0.72380254  0.01580908  0.68338546    -0.03900
C921        C  0.75846282  0.01382385  0.75210864    -0.17600
C922        C  0.70868560  0.98270559  0.75269680    -0.17300
C923        C  0.70747647  0.03834385  0.75602784    -0.17700
C924        C  0.75767921  0.01511730  0.72076121    -0.17700
C925        C  0.70771202  0.98415355  0.72091445    -0.17300
C926        C  0.70665826  0.04004289  0.72470757    -0.17600
C927        C  0.37469014  0.05175041  0.60995525     0.86200
C928        C  0.40413970  0.03990610  0.59542940    -0.54100
C929        C  0.41597637  0.05765115  0.57224180     0.09100
C930        C  0.39663969  0.08680444  0.56594017     0.20000
C931        C  0.38239197  0.08500403  0.61962515    -0.54800
C932        C  0.39395850  0.10327660  0.59706761     0.09200
C933        C  0.35169465  0.05573049  0.58327249    -0.54300
C934        C  0.36240755  0.07542041  0.56065452     0.09800
H935        H  0.41465006  0.01866982  0.60296463     0.14300
H936        H  0.40656224  0.10141418  0.54731374     0.00000
H937        H  0.37861749  0.09382967  0.64263863     0.14600
H938        H  0.32721949  0.04909038  0.58529436     0.14400
C939        C  0.52329346  0.89022751  0.60991440     0.86200
C940        C  0.51244980  0.91376330  0.58657570    -0.54100
C941        C  0.53611196  0.92635274  0.56928441     0.09100
C942        C  0.56879326  0.91457205  0.57721347     0.20000
C943        C  0.54194357  0.86661998  0.59128250    -0.54800
C944        C  0.56636009  0.87908865  0.57479720     0.09200
C945        C  0.54899322  0.90726232  0.62863768    -0.54300
C946        C  0.57264546  0.91996808  0.61169851     0.09800
H947        H  0.48835919  0.92076720  0.58469132     0.14300
H948        H  0.58778600  0.92508594  0.56303215     0.00000
H949        H  0.53963202  0.84194694  0.59499799     0.14600
H950        H  0.54940317  0.90798030  0.65345350     0.14400
C951        C  0.60378320  0.11252518  0.54381343     0.86200
C952        C  0.61713032  0.09037086  0.56777128    -0.54100
C953        C  0.59674321  0.08091392  0.58992256     0.09100
C954        C  0.56380072  0.09295879  0.58524709     0.20000
C955        C  0.57568964  0.09500292  0.53016905    -0.54800
C956        C  0.55486135  0.08422021  0.55171737     0.09200
C957        C  0.58957868  0.13829134  0.56364531    -0.54300
C958        C  0.56903172  0.12825762  0.58557479     0.09800
H959        H  0.64178708  0.08615133  0.57041415     0.14300
H960        H  0.54681097  0.08450806  0.60276012     0.00000
H961        H  0.57354594  0.08983027  0.50594672     0.14600
H962        H  0.59783661  0.16216752  0.56278330     0.14400
C963        C  0.39128301  0.91215059  0.45705885     0.86200
C964        C  0.42127870  0.92799823  0.46919379    -0.54100
C965        C  0.44048876  0.93938653  0.44620857     0.09100
C966        C  0.42831669  0.93209913  0.41338120     0.20000
C967        C  0.37738742  0.93707093  0.43652806    -0.54800
C968        C  0.39541183  0.94528057  0.41203372     0.09200
C969        C  0.40288119  0.88706299  0.43531955    -0.54300
C970        C  0.42203537  0.89708442  0.41239166     0.09800
H971        H  0.42570640  0.93197567  0.49331912     0.14300
H972        H  0.44403975  0.94079655  0.39491364     0.00000
H973        H  0.35360681  0.94491396  0.43871579     0.14600
H974        H  0.39414230  0.86335228  0.43667769     0.14400
C975        C  0.62638268  0.95455640  0.39231052     0.86200
C976        C  0.60985706  0.92678094  0.37737363    -0.54100
C977        C  0.58967858  0.91089725  0.39573166     0.09100
C978        C  0.58724466  0.92454398  0.42816183     0.20000
C979        C  0.59945010  0.97451907  0.40397606    -0.54800
C980        C  0.57908255  0.95879363  0.42327027     0.09200
C981        C  0.64102734  0.94224677  0.42155984    -0.54300
C982        C  0.62109749  0.92558963  0.43974932     0.09800
H983        H  0.61386926  0.92025631  0.35365494     0.14300
H984        H  0.57080227  0.91167319  0.44344597     0.00000
H985        H  0.59696461  0.99870361  0.39842585     0.14600
H986        H  0.66608465  0.94298024  0.42545869     0.14400
C987        C  0.45626713  0.13659994  0.39166422     0.86200
C988        C  0.43371539  0.15271979  0.41361979    -0.54100
C989        C  0.41191600  0.13347810  0.42685346     0.09100
C990        C  0.41782358  0.09914005  0.42032192     0.20000
C991        C  0.47291679  0.11362366  0.41212982    -0.54800
C992        C  0.45276845  0.09417207  0.42745191     0.09200
C993        C  0.43539759  0.11650843  0.37058766    -0.54300
C994        C  0.41477994  0.09738939  0.38538974     0.09800
H995        H  0.43231234  0.17769297  0.41494371     0.14300
H996        H  0.40183250  0.08306369  0.43281488     0.00000
H997        H  0.49803650  0.11227615  0.41434250     0.14600
H998        H  0.43565863  0.11883559  0.34585472     0.14400
O999        O  0.53338728  0.97970744  0.55981593    -0.81200
O1000       O  0.47456805  0.07330192  0.47306261    -0.65900
O1001       O  0.48721509  0.00233371  0.52277816    -1.12500
C1002       C  0.55213083  0.97356105  0.43834847     1.05700
O1003       O  0.46380429  0.04161669  0.43455013    -0.79100
O1004       O  0.47442327  0.98056228  0.43121103    -0.66700
Ni1005     Ni  0.49746271  0.00494893  0.56477741     1.34900
C1006       C  0.46723116  0.96121534  0.45198679     0.84400
O1007       O  0.45064973  0.05530815  0.52857862    -0.79700
O1008       O  0.46162898  0.02934047  0.57171674    -0.89900
C1009       C  0.46413931  0.06854779  0.44616386     0.84000
O1010       O  0.52384626  0.04083230  0.56399300    -0.68100
O1011       O  0.53750599  0.99357250  0.42298741    -0.87400
C1012       C  0.52944250  0.06157300  0.54428480     0.84800
C1013       C  0.44477946  0.04757730  0.55635159     1.06400
H1014       H  0.53008686  0.03208315  0.47354660     0.38200
O1015       O  0.51065252  0.02038647  0.47249955    -1.10100
O1016       O  0.48108854  0.96063448  0.47762228    -0.66700
Ni1017     Ni  0.51606048  0.98341335  0.49519303     1.26300
O1018       O  0.51511689  0.06290047  0.51874241    -0.67000
O1019       O  0.54493182  0.96592219  0.46585456    -0.79200
C1020       C  0.53072521  0.95262190  0.54889420     0.84200
O1021       O  0.52151058  0.94847832  0.52154108    -0.66400
Ni1022     Ni  0.50064480  0.01714341  0.43021142     1.27400
Ni1023     Ni  0.48112358  0.03893468  0.49987922     1.26100
H1024       H  0.46769787  0.99073031  0.52212610     0.38700
C1025       C  0.68393430  0.05774908  0.70723532    -0.05600
C1026       C  0.69391875  0.08476791  0.69241063    -0.05500
C1027       C  0.67602747  0.09701149  0.66906377    -0.23700
C1028       C  0.64883688  0.08133805  0.65928141     0.18600
C1029       C  0.63776419  0.05488951  0.67507368     0.15800
C1030       C  0.65491663  0.04392267  0.69985958    -0.18700
C1031       C  0.61118866  0.03864485  0.66427400    -0.20500
C1032       C  0.59702438  0.04737993  0.63688294    -0.13100
C1033       C  0.60906404  0.07264852  0.62036878     0.03600
C1034       C  0.63394239  0.09042572  0.63261757    -0.25200
H1035       H  0.71637656  0.09537710  0.69778395     0.08700
H1036       H  0.68466766  0.11738930  0.65716185     0.12300
H1037       H  0.64741251  0.02287116  0.71133015     0.12200
H1038       H  0.60239085  0.01830107  0.67612298     0.12000
H1039       H  0.57752632  0.03380251  0.62802729     0.12500
H1040       H  0.64262872  0.11071256  0.62054717     0.14500
C1041       C  0.68726936  0.96447478  0.70023446    -0.05600
C1042       C  0.67791155  0.93415387  0.70802598    -0.05500
C1043       C  0.65428645  0.91860159  0.69157485    -0.23700
C1044       C  0.64065275  0.93250115  0.66610525     0.18600
C1045       C  0.65248201  0.96121962  0.65584546     0.15800
C1046       C  0.67544295  0.97687454  0.67284006    -0.18700
C1047       C  0.64011984  0.97465375  0.62948870    -0.20500
C1048       C  0.61474423  0.96069307  0.61455674    -0.13100
C1049       C  0.60123549  0.93331660  0.62592575     0.03600
C1050       C  0.61493781  0.91872961  0.65114979    -0.25200
H1051       H  0.68776795  0.92295254  0.72768007     0.08700
H1052       H  0.64617634  0.89604429  0.69921717     0.12300
H1053       H  0.68206596  0.99966090  0.66513763     0.12200
H1054       H  0.64942182  0.99648070  0.62101022     0.12000
H1055       H  0.60486083  0.97193300  0.59489270     0.12500
H1056       H  0.60530053  0.89692712  0.65935525     0.14500
C1057       C  0.45059368  0.20283695  0.68685650    -0.05600
C1058       C  0.47330711  0.18279443  0.67519737    -0.05500
C1059       C  0.46787868  0.16419878  0.64995684    -0.23700
C1060       C  0.43863461  0.16315669  0.63659065     0.18600
C1061       C  0.41448131  0.18143060  0.64864118     0.15800
C1062       C  0.42059270  0.20129774  0.67366360    -0.18700
C1063       C  0.38443776  0.17817844  0.63633787    -0.20500
C1064       C  0.37807323  0.15489095  0.61481473    -0.13100
C1065       C  0.40193830  0.13552532  0.60446706     0.03600
C1066       C  0.43251933  0.14147052  0.61357801    -0.25200
H1067       H  0.49589010  0.18092785  0.68492651     0.08700
H1068       H  0.48638771  0.14963216  0.64166172     0.12300
H1069       H  0.40205805  0.21518232  0.68292475     0.12200
H1070       H  0.36545282  0.19179735  0.64511652     0.12000
H1071       H  0.35402423  0.14991230  0.60863763     0.12500
H1072       H  0.45065779  0.12589823  0.60634184     0.14500
C1073       C  0.53107988  0.23598345  0.68276126    -0.05600
C1074       C  0.52511508  0.24546969  0.65256227    -0.05500
C1075       C  0.53422170  0.22778042  0.62749154    -0.23700
C1076       C  0.54737838  0.19896463  0.63196625     0.18600
C1077       C  0.55440311  0.18940192  0.66194804     0.15800
C1078       C  0.54829399  0.20901491  0.68692584    -0.18700
C1079       C  0.56438274  0.15922718  0.66669507    -0.20500
C1080       C  0.56701396  0.13876092  0.64205038    -0.13100
C1081       C  0.56146731  0.14852467  0.61199489     0.03600
C1082       C  0.55193598  0.17888593  0.60713005    -0.25200
H1083       H  0.51145790  0.26544033  0.64788867     0.08700
H1084       H  0.52846578  0.23544807  0.60469742     0.12300
H1085       H  0.55292865  0.20113481  0.70991678     0.12200
H1086       H  0.56908919  0.15110194  0.68957193     0.12000
H1087       H  0.57413669  0.11552178  0.64659051     0.12500
H1088       H  0.54728644  0.18654054  0.58406132     0.14500
C1089       C  0.53760261  0.79789241  0.31161858    -0.05600
C1090       C  0.57025198  0.79944070  0.30954000    -0.05500
C1091       C  0.58727887  0.82049214  0.32756997    -0.23700
C1092       C  0.57180802  0.84009789  0.34802044     0.18600
C1093       C  0.53901116  0.83808585  0.35083273     0.15800
C1094       C  0.52220732  0.81711880  0.33250074    -0.18700
C1095       C  0.52354165  0.85756741  0.37142591    -0.20500
C1096       C  0.54032500  0.88006417  0.38794480    -0.13100
C1097       C  0.57269021  0.88328492  0.38399147     0.03600
C1098       C  0.58843302  0.86245841  0.36486201    -0.25200
H1099       H  0.58246501  0.78467636  0.29365886     0.08700
H1100       H  0.61246422  0.82175128  0.32522234     0.12300
H1101       H  0.49716230  0.81573085  0.33464311     0.12200
H1102       H  0.49839794  0.85613947  0.37391847     0.12000
H1103       H  0.52785710  0.89603715  0.40240075     0.12500
H1104       H  0.61355692  0.86461953  0.36206019     0.14500
C1105       C  0.42895555  0.87653363  0.38612298    -0.05600
C1106       C  0.42803415  0.88746032  0.35594411    -0.05500
C1107       C  0.42962853  0.86688539  0.33124708    -0.23700
C1108       C  0.43267618  0.83514433  0.33639449     0.18600
C1109       C  0.43430032  0.82419489  0.36665411     0.15800
C1110       C  0.43248607  0.84482647  0.39117084    -0.18700
C1111       C  0.43904003  0.79291891  0.37202467    -0.20500
C1112       C  0.44538869  0.77316168  0.34774381    -0.13100
C1113       C  0.44516339  0.78380509  0.31732344     0.03600
C1114       C  0.43636233  0.81446149  0.31191541    -0.25200
H1115       H  0.42499779  0.91169895  0.35135081     0.08700
H1116       H  0.42876611  0.87581671  0.30817171     0.12300
H1117       H  0.43398108  0.83615377  0.41431828     0.12200
H1118       H  0.44043238  0.78424054  0.39517303     0.12000
H1119       H  0.45348153  0.75065523  0.35363859     0.12500
H1120       H  0.43588088  0.82309772  0.28869734     0.14500
C1121       C  0.06314544  0.29892079  0.81461027    -0.05600
C1122       C  0.09158701  0.31144637  0.80392395    -0.05500
C1123       C  0.10539096  0.33700102  0.81874559    -0.23700
C1124       C  0.09024824  0.35073814  0.84377650     0.18600
C1125       C  0.06260646  0.33698419  0.85558507     0.15800
C1126       C  0.04974785  0.31082744  0.84129298    -0.18700
C1127       C  0.04709759  0.35073910  0.88024879    -0.20500
C1128       C  0.05763279  0.37906522  0.89192247    -0.13100
C1129       C  0.08413448  0.39375754  0.87940395     0.03600
C1130       C  0.10118268  0.37880580  0.85616352    -0.25200
H1131       H  0.10198377  0.30276022  0.78305521     0.08700
H1132       H  0.12675478  0.34715701  0.80949108     0.12300
H1133       H  0.02805586  0.30112019  0.84965571     0.12200
H1134       H  0.02622619  0.34013547  0.88981273     0.12000
H1135       H  0.04450226  0.38993851  0.91007817     0.12500
H1136       H  0.12247348  0.38935566  0.84715273     0.14500
C1137       C  0.96586599  0.29517706  0.81380468    -0.05600
C1138       C  0.95145303  0.32062876  0.80052823    -0.05500
C1139       C  0.94201113  0.34561322  0.81843433    -0.23700
C1140       C  0.94764284  0.34604927  0.84997481     0.18600
C1141       C  0.96069762  0.31987056  0.86379447     0.15800
C1142       C  0.96866833  0.29413364  0.84576112    -0.18700
C1143       C  0.96690321  0.32047156  0.89520096    -0.20500
C1144       C  0.96002715  0.34651856  0.91276050    -0.13100
C1145       C  0.94610945  0.37235543  0.89955324     0.03600
C1146       C  0.94043532  0.37212635  0.86790388    -0.25200
H1147       H  0.94956933  0.32213019  0.77588509     0.08700
H1148       H  0.93181853  0.36527670  0.80736903     0.12300
H1149       H  0.98006247  0.27475795  0.85618594     0.12200
H1150       H  0.97718727  0.30081946  0.90620650     0.12000
H1151       H  0.96417870  0.34594838  0.93716015     0.12500
H1152       H  0.92902599  0.39150164  0.85753404     0.14500
C1153       C  0.81465052  0.45560827  0.77881452    -0.05600
C1154       C  0.80334609  0.42877467  0.79324553    -0.05500
C1155       C  0.81893388  0.41682235  0.81850735    -0.23700
C1156       C  0.84557375  0.43214240  0.83029300     0.18600
C1157       C  0.85822932  0.45810371  0.81492399     0.15800
C1158       C  0.84296085  0.46930349  0.78898497    -0.18700
C1159       C  0.88446697  0.47382192  0.82716039    -0.20500
C1160       C  0.89677794  0.46512141  0.85545723    -0.13100
C1161       C  0.88319950  0.44043945  0.87180136     0.03600
C1162       C  0.85846533  0.42318716  0.85824801    -0.25200
H1163       H  0.78122839  0.41838286  0.78637643     0.08700
H1164       H  0.80894531  0.39682140  0.83006563     0.12300
H1165       H  0.85125968  0.49074920  0.77883321     0.12200
H1166       H  0.89448485  0.49380940  0.81559992     0.12000
H1167       H  0.91592718  0.47854857  0.86518930     0.12500
H1168       H  0.84838832  0.40336574  0.87005264     0.14500
C1169       C  0.81309543  0.54913931  0.78762610    -0.05600
C1170       C  0.82236331  0.57974724  0.78095297    -0.05500
C1171       C  0.84330091  0.59578178  0.80000075    -0.23700
C1172       C  0.85482333  0.58162217  0.82628453     0.18600
C1173       C  0.84436560  0.55167397  0.83404399     0.15800
C1174       C  0.82365693  0.53597531  0.81499702    -0.18700
C1175       C  0.85539691  0.53729480  0.86038152    -0.20500
C1176       C  0.87793982  0.55200235  0.87826571    -0.13100
C1177       C  0.88914810  0.58151902  0.87039301     0.03600
C1178       C  0.87685468  0.59661874  0.84480539    -0.25200
H1179       H  0.81348036  0.59150994  0.76123428     0.08700
H1180       H  0.85068735  0.61908207  0.79403389     0.12300
H1181       H  0.81739341  0.51280643  0.82160969     0.12200
H1182       H  0.84719342  0.51433406  0.86669905     0.12000
H1183       H  0.88712990  0.53989080  0.89771786     0.12500
H1184       H  0.88446462  0.61992467  0.83914234     0.14500
C1185       C  0.13815290  0.39068654  0.07125343    -0.05600
C1186       C  0.15715432  0.40420022  0.04857046    -0.05500
C1187       C  0.18590108  0.39101423  0.04089297    -0.23700
C1188       C  0.19526147  0.36368160  0.05521172     0.18600
C1189       C  0.17761221  0.35198906  0.08009509     0.15800
C1190       C  0.15008082  0.36638820  0.08873803    -0.18700
C1191       C  0.18579237  0.32416904  0.09388118    -0.20500
C1192       C  0.20884031  0.30608300  0.08074333    -0.13100
C1193       C  0.22513448  0.31636128  0.05476907     0.03600
C1194       C  0.21984135  0.34613715  0.04331839    -0.25200
H1195       H  0.14883032  0.42340427  0.03538560     0.08700
H1196       H  0.19934882  0.40055420  0.02197651     0.12300
H1197       H  0.13625826  0.35669091  0.10736505     0.12200
H1198       H  0.17246885  0.31505951  0.11309024     0.12000
H1199       H  0.21253377  0.28314697  0.08959052     0.12500
H1200       H  0.23219138  0.35387229  0.02295273     0.14500
C1201       C  0.14914618  0.40754552  0.94219481    -0.05600
C1202       C  0.13791695  0.39528897  0.96981398    -0.05500
C1203       C  0.14994484  0.36813432  0.98119001    -0.23700
C1204       C  0.17384102  0.35322619  0.96541150     0.18600
C1205       C  0.18441503  0.36457257  0.93696609     0.15800
C1206       C  0.17208806  0.39182005  0.92551178    -0.18700
C1207       C  0.20688325  0.34825991  0.92050929    -0.20500
C1208       C  0.22051090  0.32236192  0.93337613    -0.13100
C1209       C  0.21295212  0.31318365  0.96344021     0.03600
C1210       C  0.18796624  0.32776443  0.97829395    -0.25200
H1211       H  0.11960855  0.40661763  0.98247834     0.08700
H1212       H  0.14085117  0.35899497  0.00256097     0.12300
H1213       H  0.17967796  0.40027409  0.90332823     0.12200
H1214       H  0.21431696  0.35582120  0.89797998     0.12000
H1215       H  0.23764722  0.31021281  0.92003128     0.12500
H1216       H  0.18029922  0.32116354  0.00086224     0.14500
C1217       C  0.94272321  0.12390432  0.87224035    -0.05600
C1218       C  0.97389095  0.12130803  0.86321620    -0.05500
C1219       C  0.98864439  0.14496763  0.84669355    -0.23700
C1220       C  0.97226212  0.17143499  0.83863629     0.18600
C1221       C  0.94107325  0.17476409  0.84808765     0.15800
C1222       C  0.92639490  0.15086392  0.86504038    -0.18700
C1223       C  0.92510260  0.20142872  0.83947595    -0.20500
C1224       C  0.93996068  0.22438614  0.82144827    -0.13100
C1225       C  0.97105198  0.22109434  0.81166582     0.03600
C1226       C  0.98662780  0.19418661  0.82058394    -0.25200
H1227       H  0.98648177  0.10052495  0.86814860     0.08700
H1228       H  0.01263926  0.14216447  0.83945145     0.12300
H1229       H  0.90202544  0.15255916  0.87147634     0.12200
H1230       H  0.90102218  0.20435064  0.84636615     0.12000
H1231       H  0.92689544  0.24427890  0.81469541     0.12500
H1232       H  0.01029013  0.19025176  0.81364916     0.14500
C1233       C  0.78594983  0.02266675  0.77097938    -0.05600
C1234       C  0.80222607  0.05036681  0.76459860    -0.05500
C1235       C  0.82609697  0.06088847  0.78362720    -0.23700
C1236       C  0.83385878  0.04411817  0.80968143     0.18600
C1237       C  0.81825134  0.01589906  0.81625797     0.15800
C1238       C  0.79410705  0.00532690  0.79682339    -0.18700
C1239       C  0.82633732  0.99964216  0.84275513    -0.20500
C1240       C  0.84908717  0.01174103  0.86286667    -0.13100
C1241       C  0.86423664  0.04024065  0.85669596     0.03600
C1242       C  0.85601310  0.05614286  0.82995828    -0.25200
H1243       H  0.79582218  0.06438253  0.74527290     0.08700
H1244       H  0.83793697  0.08262100  0.77840547     0.12300
H1245       H  0.78131744  0.98410239  0.80201488     0.12200
H1246       H  0.81443349  0.97805984  0.84838225     0.12000
H1247       H  0.85364096  0.99949730  0.88380955     0.12500
H1248       H  0.86571922  0.07900748  0.82553903     0.14500
C1249       C  0.06575466  0.15229791  0.90526052    -0.05600
C1250       C  0.05037071  0.17870008  0.91574232    -0.05500
C1251       C  0.04530446  0.20376325  0.89628402    -0.23700
C1252       C  0.05601378  0.20340302  0.86586447     0.18600
C1253       C  0.07140692  0.17709258  0.85482996     0.15800
C1254       C  0.07582451  0.15162149  0.87441878    -0.18700
C1255       C  0.08175960  0.17662519  0.82425587    -0.20500
C1256       C  0.07556736  0.20122311  0.80449308    -0.13100
C1257       C  0.05950889  0.22722654  0.81487618     0.03600
C1258       C  0.05050247  0.22837036  0.84600972    -0.25200
H1259       H  0.04271543  0.18013867  0.93933920     0.08700
H1260       H  0.03327161  0.22363563  0.90517625     0.12300
H1261       H  0.08793363  0.13178726  0.86580599     0.12200
H1262       H  0.09361851  0.15668113  0.81528228     0.12000
H1263       H  0.08186157  0.19922539  0.78055629     0.12500
H1264       H  0.03668715  0.24733425  0.85413151     0.14500
C1265       C  0.20762153  0.21592058  0.01540163    -0.05600
C1266       C  0.17817857  0.22154101  0.02887329    -0.05500
C1267       C  0.15346326  0.19998754  0.02657962    -0.23700
C1268       C  0.15818531  0.17121742  0.01297605     0.18600
C1269       C  0.18868634  0.16319077  0.00437313     0.15800
C1270       C  0.21272146  0.18585964  0.00402343    -0.18700
C1271       C  0.19413210  0.13291960  0.99483534    -0.20500
C1272       C  0.16896602  0.11261884  0.98930836    -0.13100
C1273       C  0.13812164  0.12350524  0.98950203     0.03600
C1274       C  0.13287521  0.15129687  0.00552110    -0.25200
H1275       H  0.17347444  0.24300450  0.04044807     0.08700
H1276       H  0.13052280  0.20612471  0.03482893     0.12300
H1277       H  0.23444887  0.18012587  0.99307983     0.12200
H1278       H  0.21765540  0.12541251  0.99024225     0.12000
H1279       H  0.17394122  0.08976053  0.98076338     0.12500
H1280       H  0.10924675  0.15901925  0.00904125     0.14500
C1281       C  0.28460035  0.00918333  0.71700724    -0.05600
C1282       C  0.27483220  0.99215674  0.69117704    -0.05500
C1283       C  0.29337108  0.99154465  0.66500824    -0.23700
C1284       C  0.32229853  0.00701417  0.66495662     0.18600
C1285       C  0.33470174  0.01867456  0.69274914     0.15800
C1286       C  0.31557208  0.02004949  0.71874611    -0.18700
C1287       C  0.36481598  0.03166745  0.69306542    -0.20500
C1288       C  0.38014357  0.03759566  0.66549252    -0.13100
C1289       C  0.36440305  0.03285484  0.63750178     0.03600
C1290       C  0.33727808  0.01418370  0.63730520    -0.25200
H1291       H  0.25154985  0.98193050  0.69014358     0.08700
H1292       H  0.28404625  0.98123051  0.64427117     0.12300
H1293       H  0.32361089  0.03259914  0.73880118     0.12200
H1294       H  0.37547467  0.03932184  0.71428015     0.12000
H1295       H  0.40255018  0.04969039  0.66610683     0.12500
H1296       H  0.32636857  0.00752279  0.61594190     0.14500
C1297       C  0.12674543  0.08678416  0.88149583    -0.05600
C1298       C  0.11184661  0.06823938  0.85934722    -0.05500
C1299       C  0.12563178  0.06414811  0.83052608    -0.23700
C1300       C  0.15511329  0.07748906  0.82393934     0.18600
C1301       C  0.16985879  0.09687627  0.84563756     0.15800
C1302       C  0.15496240  0.10248005  0.87354799    -0.18700
C1303       C  0.20007834  0.10890274  0.83981715    -0.20500
C1304       C  0.21671518  0.09921908  0.81401477    -0.13100
C1305       C  0.20250971  0.07921904  0.79279777     0.03600
C1306       C  0.17104483  0.07019117  0.79694170    -0.25200
H1307       H  0.08994699  0.05637718  0.86447708     0.08700
H1308       H  0.11391699  0.04941520  0.81392491     0.12300
H1309       H  0.16606036  0.11857152  0.88929304     0.12200
H1310       H  0.21168504  0.12383676  0.85635142     0.12000
H1311       H  0.24106361  0.10602494  0.81140340     0.12500
H1312       H  0.15984449  0.05576028  0.77995244     0.14500
C1313       C  0.12005623  0.94130399  0.87591867    -0.05600
C1314       C  0.15142559  0.93660077  0.88324201    -0.05500
C1315       C  0.17521358  0.94874704  0.86430682    -0.23700
C1316       C  0.16757174  0.96514456  0.83779268     0.18600
C1317       C  0.13583681  0.97006537  0.83113890     0.15800
C1318       C  0.11256827  0.95897129  0.85058392    -0.18700
C1319       C  0.12747668  0.98515363  0.80455601    -0.20500
C1320       C  0.15031207  0.99579582  0.78459987    -0.13100
C1321       C  0.18213117  0.99196238  0.79079949     0.03600
C1322       C  0.19071378  0.97652858  0.81760754    -0.25200
H1323       H  0.15741567  0.92254804  0.90265702     0.08700
H1324       H  0.19936059  0.94451729  0.86980715     0.12300
H1325       H  0.08823583  0.96243575  0.84500535     0.12200
H1326       H  0.10318404  0.98901101  0.79926859     0.12000
H1327       H  0.14249553  0.00857599  0.76527514     0.12500
H1328       H  0.21519099  0.97344985  0.82264905     0.14500
C1329       C  0.78143801  0.30166284  0.99264565    -0.05600
C1330       C  0.78437994  0.30380601  0.96080636    -0.05500
C1331       C  0.80439902  0.32577863  0.94761690    -0.23700
C1332       C  0.82155228  0.34649547  0.96602612     0.18600
C1333       C  0.81843400  0.34549238  0.99809618     0.15800
C1334       C  0.79876631  0.32242860  0.01140201    -0.18700
C1335       C  0.83560780  0.36715781  0.01590789    -0.20500
C1336       C  0.85649375  0.38871594  0.00204103    -0.13100
C1337       C  0.86061106  0.38878295  0.97012328     0.03600
C1338       C  0.84247404  0.36759402  0.95257515    -0.25200
H1339       H  0.77153210  0.28791086  0.94608758     0.08700
H1340       H  0.80665276  0.32641111  0.92292838     0.12300
H1341       H  0.79676562  0.32068759  0.03604336     0.12200
H1342       H  0.83337593  0.36699988  0.04058585     0.12000
H1343       H  0.87016258  0.40428155  0.01630785     0.12500
H1344       H  0.84564966  0.36668529  0.92796124     0.14500
C1345       C  0.87758661  0.14882229  0.06873560    -0.05600
C1346       C  0.87627056  0.17593142  0.08692893    -0.05500
C1347       C  0.85055304  0.19470136  0.08647336    -0.23700
C1348       C  0.82473785  0.18631083  0.06895530     0.18600
C1349       C  0.82372236  0.15730841  0.05382357     0.15800
C1350       C  0.85033534  0.13857866  0.05372063    -0.18700
C1351       C  0.79681153  0.14872517  0.03751885    -0.20500
C1352       C  0.77289418  0.16986441  0.03376297    -0.13100
C1353       C  0.77568652  0.19993721  0.04593762     0.03600
C1354       C  0.80089347  0.20741770  0.06479637    -0.25200
H1355       H  0.89590410  0.18357511  0.10072630     0.08700
H1356       H  0.85133139  0.21631933  0.09904440     0.12300
H1357       H  0.85043581  0.11723757  0.04071630     0.12200
H1358       H  0.79510618  0.12651575  0.02611139     0.12000
H1359       H  0.75361342  0.16364734  0.01907553     0.12500
H1360       H  0.80318217  0.23059455  0.07412699     0.14500
C1361       C  0.86439769  0.12820709  0.92925060    -0.05600
C1362       C  0.87240704  0.13793064  0.95881601    -0.05500
C1363       C  0.85601406  0.16150069  0.97293668    -0.23700
C1364       C  0.83119132  0.17524899  0.95776254     0.18600
C1365       C  0.82417747  0.16691258  0.92736650     0.15800
C1366       C  0.84119547  0.14376394  0.91310046    -0.18700
C1367       C  0.79951073  0.18102985  0.91225845    -0.20500
C1368       C  0.78063797  0.20177340  0.92793737    -0.13100
C1369       C  0.78607725  0.20846555  0.95894969     0.03600
C1370       C  0.81241388  0.19611299  0.97309473    -0.25200
H1371       H  0.89041469  0.12649845  0.97148160     0.08700
H1372       H  0.86200260  0.16821463  0.99608805     0.12300
H1373       H  0.83573989  0.13725796  0.88974331     0.12200
H1374       H  0.79426177  0.17535437  0.88865940     0.12000
H1375       H  0.76161995  0.21216620  0.91587169     0.12500
H1376       H  0.81766135  0.20099562  0.99673030     0.14500
C1377       C  0.06827968  0.88870686  0.11684983    -0.05600
C1378       C  0.04635846  0.87060673  0.10076507    -0.05500
C1379       C  0.03703252  0.84146626  0.11189797    -0.23700
C1380       C  0.04906487  0.83033009  0.13953480     0.18600
C1381       C  0.07260066  0.84749142  0.15474449     0.15800
C1382       C  0.08250838  0.87607383  0.14296002    -0.18700
C1383       C  0.08452880  0.83669904  0.18248226    -0.20500
C1384       C  0.07155594  0.81022327  0.19619907    -0.13100
C1385       C  0.04709534  0.79370254  0.18206610     0.03600
C1386       C  0.03665771  0.80343022  0.15323301    -0.25200
H1387       H  0.03560895  0.87945409  0.08034071     0.08700
H1388       H  0.01967485  0.82810143  0.09944560     0.12300
H1389       H  0.10062865  0.88906441  0.15491943     0.12200
H1390       H  0.10255685  0.84976172  0.19448099     0.12000
H1391       H  0.07912009  0.80385422  0.21886395     0.12500
H1392       H  0.01727272  0.79152990  0.14250491     0.14500
C1393       C  0.94979586  0.72134684  0.18588459    -0.05600
C1394       C  0.92606671  0.70405621  0.20045064    -0.05500
C1395       C  0.91550191  0.67593957  0.18797569    -0.23700
C1396       C  0.92936971  0.66423842  0.16128342     0.18600
C1397       C  0.95237669  0.68203187  0.14580687     0.15800
C1398       C  0.96191014  0.71074128  0.15790385    -0.18700
C1399       C  0.96661408  0.67008452  0.11942453    -0.20500
C1400       C  0.95878645  0.64035154  0.10892344    -0.13100
C1401       C  0.93637313  0.62214880  0.12445728     0.03600
C1402       C  0.92130246  0.63467640  0.15037594    -0.25200
H1403       H  0.91729589  0.71124625  0.22257899     0.08700
H1404       H  0.89782188  0.66251415  0.20016458     0.12300
H1405       H  0.98070859  0.72350463  0.14693786     0.12200
H1406       H  0.98401414  0.68362026  0.10708551     0.12000
H1407       H  0.97032078  0.63156727  0.08869758     0.12500
H1408       H  0.90300153  0.62160927  0.16204729     0.14500
C1409       C  0.95204245  0.79513826  0.18212067    -0.05600
C1410       C  0.93917770  0.82202896  0.19463730    -0.05500
C1411       C  0.93180615  0.84720940  0.17608893    -0.23700
C1412       C  0.93806688  0.84655986  0.14453977     0.18600
C1413       C  0.95009274  0.81935817  0.13150570     0.15800
C1414       C  0.95609437  0.79361939  0.15017051    -0.18700
C1415       C  0.95696679  0.81871210  0.10013401    -0.20500
C1416       C  0.95158915  0.84443010  0.08178331    -0.13100
C1417       C  0.93863703  0.87138940  0.09407386     0.03600
C1418       C  0.93240175  0.87243647  0.12578696    -0.25200
H1419       H  0.93655026  0.82424154  0.21919510     0.08700
H1420       H  0.92248978  0.86771991  0.18666158     0.12300
H1421       H  0.96648040  0.77351831  0.14003992     0.12200
H1422       H  0.96645123  0.79820550  0.08969578     0.12000
H1423       H  0.95622206  0.84277919  0.05746155     0.12500
H1424       H  0.92179218  0.89270200  0.13556865     0.14500
C1425       C  0.04371179  0.72037010  0.18311215    -0.05600
C1426       C  0.05545428  0.69336732  0.19600913    -0.05500
C1427       C  0.06445359  0.66860313  0.17742663    -0.23700
C1428       C  0.06104704  0.67005284  0.14554155     0.18600
C1429       C  0.05035087  0.69752607  0.13233480     0.15800
C1430       C  0.04243945  0.72258732  0.15109894    -0.18700
C1431       C  0.04650257  0.69912394  0.10058940    -0.20500
C1432       C  0.05346830  0.67389557  0.08200464    -0.13100
C1433       C  0.06464842  0.64653226  0.09462673     0.03600
C1434       C  0.06794530  0.64460437  0.12662186    -0.25200
H1435       H  0.05626417  0.69089740  0.22063079     0.08700
H1436       H  0.07287584  0.64787841  0.18807229     0.12300
H1437       H  0.03257012  0.74257930  0.14068209     0.12200
H1438       H  0.03809353  0.71993593  0.09009322     0.12000
H1439       H  0.05105619  0.67605420  0.05746986     0.12500
H1440       H  0.07687229  0.62383299  0.13667841     0.14500
C1441       C  0.62425062  0.11642011  0.07021643    -0.05600
C1442       C  0.61617974  0.12834783  0.04164659    -0.05500
C1443       C  0.63393589  0.15236148  0.02850607    -0.23700
C1444       C  0.65993943  0.16508088  0.04385842     0.18600
C1445       C  0.66796801  0.15369843  0.07284743     0.15800
C1446       C  0.65022043  0.12930981  0.08577842    -0.18700
C1447       C  0.69334873  0.16720151  0.08851362    -0.20500
C1448       C  0.71110490  0.19120852  0.07520284    -0.13100
C1449       C  0.70447909  0.20172781  0.04556388     0.03600
C1450       C  0.67807407  0.18887785  0.03054162    -0.25200
H1451       H  0.59621547  0.11892867  0.02937780     0.08700
H1452       H  0.62725322  0.16107502  0.00635862     0.12300
H1453       H  0.65614365  0.12090531  0.10827010     0.12200
H1454       H  0.69953045  0.15915541  0.11105730     0.12000
H1455       H  0.73035601  0.20125004  0.08802841     0.12500
H1456       H  0.67170893  0.19646787  0.00802717     0.14500
C1457       C  0.68629727  0.05502172  0.77736085    -0.05600
C1458       C  0.67981316  0.08642658  0.77382777    -0.05500
C1459       C  0.65909670  0.10096178  0.79388032    -0.23700
C1460       C  0.64462145  0.08427217  0.81775939     0.18600
C1461       C  0.65161985  0.05298884  0.82188281     0.15800
C1462       C  0.67231983  0.03883808  0.80186080    -0.18700
C1463       C  0.63756217  0.03612422  0.84578601    -0.20500
C1464       C  0.61598369  0.04996968  0.86512410    -0.13100
C1465       C  0.60818154  0.08085663  0.86082237     0.03600
C1466       C  0.62308023  0.09811120  0.83742197    -0.25200
H1467       H  0.69089397  0.09978793  0.75579488     0.08700
H1468       H  0.65424186  0.12514626  0.79060101     0.12300
H1469       H  0.67689261  0.01490141  0.80534314     0.12200
H1470       H  0.64298288  0.01214776  0.84930925     0.12000
H1471       H  0.60487422  0.03631544  0.88297520     0.12500
H1472       H  0.61795745  0.12228746  0.83449693     0.14500
C1473       C  0.62240295  0.13378685  0.93433664    -0.05600
C1474       C  0.64204673  0.11807409  0.95421168    -0.05500
C1475       C  0.67139075  0.13091379  0.96190494    -0.23700
C1476       C  0.68093381  0.15995083  0.95038156     0.18600
C1477       C  0.66195929  0.17488316  0.92906223     0.15800
C1478       C  0.63374718  0.16107001  0.92022011    -0.18700
C1479       C  0.67014141  0.20458847  0.91870919    -0.20500
C1480       C  0.69529466  0.22067464  0.93172494    -0.13100
C1481       C  0.71352546  0.20663663  0.95388503     0.03600
C1482       C  0.70754252  0.17558371  0.96169652    -0.25200
H1483       H  0.63422186  0.09665087  0.96470838     0.08700
H1484       H  0.68570982  0.11910124  0.97827826     0.12300
H1485       H  0.61982514  0.17265663  0.90334309     0.12200
H1486       H  0.65560688  0.21630686  0.90244039     0.12000
H1487       H  0.69938101  0.24472220  0.92593509     0.12500
H1488       H  0.72124019  0.16495976  0.97923154     0.14500
C1489       C  0.52539406  0.15761296  0.88037844    -0.05600
C1490       C  0.53099728  0.18943064  0.88604855    -0.05500
C1491       C  0.52431570  0.21132092  0.86395679    -0.23700
C1492       C  0.51023905  0.20220902  0.83660478     0.18600
C1493       C  0.49929774  0.17140872  0.83307961     0.15800
C1494       C  0.50663437  0.14930746  0.85515346    -0.18700
C1495       C  0.48311731  0.16290228  0.80655587    -0.20500
C1496       C  0.47858143  0.18457783  0.78357079    -0.13100
C1497       C  0.49123489  0.21479626  0.78600723     0.03600
C1498       C  0.50766383  0.22317832  0.81248872    -0.25200
H1499       H  0.54237687  0.19804945  0.90629054     0.08700
H1500       H  0.53119241  0.23524544  0.86783433     0.12300
H1501       H  0.50094677  0.12515279  0.85091892     0.12200
H1502       H  0.47423338  0.13948739  0.80345108     0.12000
H1503       H  0.46553313  0.17748166  0.76349603     0.12500
H1504       H  0.51909402  0.24563692  0.81418568     0.14500
C1505       C  0.28137339  0.21172763  0.00864413    -0.05600
C1506       C  0.30371121  0.20481535  0.98611362    -0.05500
C1507       C  0.32481898  0.18105583  0.99061352    -0.23700
C1508       C  0.32419555  0.16427914  0.01799436     0.18600
C1509       C  0.30088285  0.17066248  0.04010597     0.15800
C1510       C  0.27967366  0.19413128  0.03526100    -0.18700
C1511       C  0.30032143  0.15500979  0.06778170    -0.20500
C1512       C  0.32371197  0.13466036  0.07450609    -0.13100
C1513       C  0.34789538  0.12837845  0.05338191     0.03600
C1514       C  0.34748655  0.14277300  0.02458617    -0.25200
H1515       H  0.30538838  0.21846638  0.96545145     0.08700
H1516       H  0.34236685  0.17668791  0.97329415     0.12300
H1517       H  0.26289310  0.19989872  0.05293449     0.12200
H1518       H  0.28277436  0.15979019  0.08501164     0.12000
H1519       H  0.32381736  0.12502029  0.09731186     0.12500
H1520       H  0.36618392  0.13910506  0.00833212     0.14500
C1521       C  0.49430634  0.79357242  0.21593630    -0.05600
C1522       C  0.48449999  0.78283330  0.18701430    -0.05500
C1523       C  0.48776228  0.80128084  0.16117793    -0.23700
C1524       C  0.49741603  0.83214896  0.16416673     0.18600
C1525       C  0.50598137  0.84396714  0.19308194     0.15800
C1526       C  0.50608584  0.82418542  0.21845570    -0.18700
C1527       C  0.51190047  0.87581067  0.19635052    -0.20500
C1528       C  0.50388254  0.89585089  0.17270277    -0.13100
C1529       C  0.49141182  0.88402516  0.14511863     0.03600
C1530       C  0.49437460  0.85221594  0.13951572    -0.25200
H1531       H  0.47340216  0.76041264  0.18415601     0.08700
H1532       H  0.47998279  0.79219519  0.13931107     0.12300
H1533       H  0.51409036  0.83318857  0.24022200     0.12200
H1534       H  0.51923581  0.88542000  0.21813701     0.12000
H1535       H  0.50447749  0.92045550  0.17713829     0.12500
H1536       H  0.48846774  0.84269548  0.11728809     0.14500
C1537       C  0.63728909  0.94595454  0.87863027    -0.05600
C1538       C  0.66892414  0.95547295  0.88217795    -0.05500
C1539       C  0.68930116  0.95729569  0.85741418    -0.23700
C1540       C  0.67802993  0.95404414  0.82776830     0.18600
C1541       C  0.64556123  0.95041627  0.82302987     0.15800
C1542       C  0.62532340  0.94499870  0.84850872    -0.18700
C1543       C  0.63426104  0.95365031  0.79310432    -0.20500
C1544       C  0.65471564  0.96232394  0.76908120    -0.13100
C1545       C  0.68733793  0.96443812  0.77366727     0.03600
C1546       C  0.69861463  0.95781325  0.80294125    -0.25200
H1547       H  0.67872264  0.96014033  0.90451023     0.08700
H1548       H  0.71380271  0.96252377  0.86147911     0.12300
H1549       H  0.60075268  0.94007423  0.84485402     0.12200
H1550       H  0.60941006  0.95206099  0.78878620     0.12000
H1551       H  0.64471915  0.96915471  0.74756812     0.12500
H1552       H  0.72348380  0.95991783  0.80723793     0.14500
C1553       C  0.37887113  0.98671947  0.86115762    -0.05600
C1554       C  0.37287025  0.01838166  0.86428243    -0.05500
C1555       C  0.34972804  0.03226874  0.84625685    -0.23700
C1556       C  0.33201272  0.01477743  0.82487429     0.18600
C1557       C  0.33903402  0.98343315  0.82063140     0.15800
C1558       C  0.36204922  0.96990020  0.83849776    -0.18700
C1559       C  0.32202374  0.96546447  0.79947864    -0.20500
C1560       C  0.29759869  0.97809008  0.78307971    -0.13100
C1561       C  0.28947996  0.00897677  0.78731884     0.03600
C1562       C  0.30693217  0.02744897  0.80825284    -0.25200
H1563       H  0.38483674  0.03205202  0.88153694     0.08700
H1564       H  0.34497375  0.05646926  0.84977535     0.12300
H1565       H  0.36560749  0.94532616  0.83596147     0.12200
H1566       H  0.32727522  0.94135730  0.79597166     0.12000
H1567       H  0.28457617  0.96349440  0.76726850     0.12500
H1568       H  0.30094938  0.05139221  0.81158860     0.14500
C1569       C  0.15029301  0.62085215  0.02277601    -0.05600
C1570       C  0.18168448  0.61355437  0.02905134    -0.05500
C1571       C  0.20577817  0.63595637  0.02654022    -0.23700
C1572       C  0.19949868  0.66555570  0.01572134     0.18600
C1573       C  0.16977306  0.67079792  0.00321830     0.15800
C1574       C  0.14569324  0.64812837  0.00591577    -0.18700
C1575       C  0.16387530  0.69952722  0.99032935    -0.20500
C1576       C  0.18632536  0.72339739  0.99163910    -0.13100
C1577       C  0.21504250  0.71979013  0.00676832     0.03600
C1578       C  0.22176649  0.69018713  0.01812126    -0.25200
H1579       H  0.18740813  0.59142004  0.03857151     0.08700
H1580       H  0.22892148  0.63057181  0.03449482     0.12300
H1581       H  0.12235845  0.65356328  0.99851195     0.12200
H1582       H  0.14149692  0.70388569  0.97996839     0.12000
H1583       H  0.18065933  0.74519046  0.98128270     0.12500
H1584       H  0.24355121  0.68654877  0.02984888     0.14500
C1585       C  0.29095341  0.82485226  0.04868567    -0.05600
C1586       C  0.29660865  0.85231296  0.03241203    -0.05500
C1587       C  0.32100487  0.87259642  0.04019215    -0.23700
C1588       C  0.34023139  0.86594453  0.06483661     0.18600
C1589       C  0.33337476  0.83946459  0.08281257     0.15800
C1590       C  0.30887586  0.81895737  0.07453452    -0.18700
C1591       C  0.35187154  0.83336695  0.10811029    -0.20500
C1592       C  0.37783140  0.85218565  0.11449806    -0.13100
C1593       C  0.38658004  0.87707523  0.09520739     0.03600
C1594       C  0.36678827  0.88461049  0.07110416    -0.25200
H1595       H  0.28283216  0.85780931  0.01297145     0.08700
H1596       H  0.32538261  0.89293854  0.02633997     0.12300
H1597       H  0.30476736  0.79777450  0.08719257     0.12200
H1598       H  0.34658769  0.81375574  0.12269885     0.12000
H1599       H  0.39126157  0.84684643  0.13458921     0.12500
H1600       H  0.37270513  0.90406315  0.05651806     0.14500
C1601       C  0.20420523  0.81395663  0.96962967    -0.05600
C1602       C  0.20400570  0.81831635  0.93782105    -0.05500
C1603       C  0.18001746  0.83494286  0.92422050    -0.23700
C1604       C  0.15608747  0.84741110  0.94233600     0.18600
C1605       C  0.15588808  0.84247484  0.97411193     0.15800
C1606       C  0.17920436  0.82527347  0.98711174    -0.18700
C1607       C  0.13241003  0.85488672  0.99269957    -0.20500
C1608       C  0.10892196  0.87211536  0.97978490    -0.13100
C1609       C  0.10862345  0.87674707  0.94825901     0.03600
C1610       C  0.13213065  0.86443106  0.92948393    -0.25200
H1611       H  0.22245817  0.80917288  0.92366442     0.08700
H1612       H  0.18033069  0.83831313  0.89968887     0.12300
H1613       H  0.17762486  0.82149010  0.01134199     0.12200
H1614       H  0.13219733  0.85120384  0.01719929     0.12000
H1615       H  0.09066227  0.88125538  0.99421926     0.12500
H1616       H  0.13138358  0.86774594  0.90493934     0.14500
C1617       C  0.27865455  0.82479074  0.96159468    -0.05600
C1618       C  0.26613826  0.85434872  0.95757406    -0.05500
C1619       C  0.28504198  0.87945662  0.94852951    -0.23700
C1620       C  0.31714671  0.87603089  0.94385896     0.18600
C1621       C  0.32998964  0.84651711  0.94614176     0.15800
C1622       C  0.31053478  0.82099820  0.95399562    -0.18700
C1623       C  0.36227447  0.84331938  0.94167502    -0.20500
C1624       C  0.38147323  0.86904777  0.93458125    -0.13100
C1625       C  0.36891475  0.89867660  0.93194462     0.03600
C1626       C  0.33657854  0.90180110  0.93736480    -0.25200
H1627       H  0.24264177  0.85937784  0.96456863     0.08700
H1628       H  0.27478335  0.90201212  0.94689201     0.12300
H1629       H  0.32077734  0.79848388  0.95598523     0.12200
H1630       H  0.37268923  0.82085473  0.94347519     0.12000
H1631       H  0.40596337  0.86535583  0.93018430     0.12500
H1632       H  0.32623654  0.92432901  0.93648086     0.14500
C1633       C  0.22102096  0.82263706  0.05670650    -0.05600
C1634       C  0.20148002  0.81475894  0.08140314    -0.05500
C1635       C  0.17893275  0.83531211  0.09183417    -0.23700
C1636       C  0.17477109  0.86353479  0.07683871     0.18600
C1637       C  0.19460129  0.87180646  0.05217156     0.15800
C1638       C  0.21813005  0.85175240  0.04294230    -0.18700
C1639       C  0.18957161  0.89925971  0.03612709    -0.20500
C1640       C  0.16543706  0.91869721  0.04484328    -0.13100
C1641       C  0.14602987  0.91093822  0.06962507     0.03600
C1642       C  0.15076439  0.88334295  0.08558617    -0.25200
H1643       H  0.20281293  0.79217469  0.09176199     0.08700
H1644       H  0.16382266  0.82854224  0.11071224     0.12300
H1645       H  0.23163231  0.85729463  0.02269951     0.12200
H1646       H  0.20429938  0.90567171  0.01684811     0.12000
H1647       H  0.16230141  0.94012206  0.03269030     0.12500
H1648       H  0.13608230  0.87757893  0.10505278     0.14500
C1649       C  0.20801072  0.00813152  0.21839181    -0.05600
C1650       C  0.21479974  0.02436705  0.19126065    -0.05500
C1651       C  0.19364953  0.02474733  0.16715660    -0.23700
C1652       C  0.16424937  0.01057966  0.17046738     0.05000
C1653       C  0.15530836  0.99843112  0.19922856     0.15800
C1654       C  0.17746547  0.99626411  0.22271220    -0.18700
C1655       C  0.12467637  0.98748339  0.20338602    -0.20500
C1656       C  0.10496085  0.98405726  0.17822838    -0.13100
C1657       C  0.11654769  0.98884545  0.14821359     0.03600
C1658       C  0.14459301  0.00617217  0.14509575    -0.25200
H1659       H  0.23679962  0.03638335  0.18833625     0.08700
H1660       H  0.20057134  0.03548768  0.14576127     0.12300
H1661       H  0.17125812  0.98411353  0.24353151     0.12200
H1662       H  0.11641316  0.98028166  0.22576635     0.12000
H1663       H  0.08154860  0.97534060  0.18248166     0.12500
H1664       H  0.15304979  0.01233179  0.12246543     0.14500
C1665       C  0.37794768  0.04804663  0.12526346    -0.05600
C1666       C  0.35269298  0.02786618  0.11899509    -0.05500
C1667       C  0.32921273  0.02387039  0.14058444    -0.23700
C1668       C  0.33287284  0.03658417  0.16977580     0.18600
C1669       C  0.36170758  0.04955940  0.17875151     0.15800
C1670       C  0.38422517  0.05637901  0.15595035    -0.18700
C1671       C  0.36633644  0.05621857  0.20991649    -0.20500
C1672       C  0.34258272  0.04907428  0.23142120    -0.13100
C1673       C  0.31224584  0.03982479  0.22170556     0.03600
C1674       C  0.30792228  0.03623387  0.19003027    -0.25200
H1675       H  0.34829013  0.02003300  0.09581470     0.08700
H1676       H  0.30776783  0.01183181  0.13414842     0.12300
H1677       H  0.40445353  0.07078606  0.16141965     0.12200
H1678       H  0.38886137  0.06472862  0.21782273     0.12000
H1679       H  0.34895078  0.04923405  0.25519172     0.12500
H1680       H  0.28546120  0.03111278  0.18042281     0.14500
C1681       C  0.37976237  0.95062400  0.38238944    -0.05600
C1682       C  0.39316779  0.97036854  0.36045539    -0.05500
C1683       C  0.37770405  0.97550538  0.33291461    -0.23700
C1684       C  0.34859864  0.96102998  0.32715270     0.18600
C1685       C  0.33580288  0.93983083  0.34834366     0.15800
C1686       C  0.35172736  0.93434585  0.37547176    -0.18700
C1687       C  0.30639451  0.92591541  0.34293825    -0.20500
C1688       C  0.28881196  0.93467453  0.31770356    -0.13100
C1689       C  0.30072648  0.95680865  0.29726938     0.03600
C1690       C  0.33100492  0.96922696  0.30176936    -0.25200
H1691       H  0.41510762  0.98239401  0.36497568     0.08700
H1692       H  0.38785748  0.99173777  0.31668812     0.12300
H1693       H  0.34184222  0.91779150  0.39152083     0.12200
H1694       H  0.29627701  0.90961398  0.35911925     0.12000
H1695       H  0.26522449  0.92553825  0.31510141     0.12500
H1696       H  0.33936471  0.98837103  0.28819305     0.14500
C1697       C  0.30599237  0.95491070  0.22702244    -0.05600
C1698       C  0.29757270  0.93335325  0.20424422    -0.05500
C1699       C  0.31839497  0.92637520  0.18031526    -0.23700
C1700       C  0.34779412  0.94144939  0.17835652     0.18600
C1701       C  0.35650934  0.96275322  0.20137595     0.15800
C1702       C  0.33578841  0.96907357  0.22529015    -0.18700
C1703       C  0.38548679  0.97833866  0.19972033    -0.20500
C1704       C  0.40617653  0.97229121  0.17586935    -0.13100
C1705       C  0.39841295  0.95052586  0.15316999     0.03600
C1706       C  0.36875373  0.93563235  0.15409601    -0.25200
H1707       H  0.27421218  0.92326245  0.20400791     0.08700
H1708       H  0.31109236  0.91003000  0.16280621     0.12300
H1709       H  0.34197758  0.98748596  0.24068111     0.12200
H1710       H  0.39246280  0.99476017  0.21728420     0.12000
H1711       H  0.42903417  0.98352050  0.17591435     0.12500
H1712       H  0.36267161  0.91840131  0.13705243     0.14500
C1713       C  0.30285467  0.04911480  0.29505969    -0.05600
C1714       C  0.31106106  0.07972095  0.28733054    -0.05500
C1715       C  0.33363471  0.09621520  0.30439664    -0.23700
C1716       C  0.34786404  0.08247457  0.32970586     0.18600
C1717       C  0.33716507  0.05316499  0.33950504     0.15800
C1718       C  0.31408212  0.03733466  0.32282103    -0.18700
C1719       C  0.35068391  0.03940270  0.36506886    -0.20500
C1720       C  0.37596301  0.05373083  0.37980864    -0.13100
C1721       C  0.38776868  0.08233022  0.36962579     0.03600
C1722       C  0.37294605  0.09706449  0.34502898    -0.25200
H1723       H  0.30152623  0.09009685  0.26704208     0.08700
H1724       H  0.34089537  0.11912941  0.29703786     0.12300
H1725       H  0.30657702  0.01487970  0.33085204     0.12200
H1726       H  0.34232522  0.01705949  0.37309043     0.12000
H1727       H  0.38670437  0.04209571  0.39877445     0.12500
H1728       H  0.38100699  0.11974168  0.33767301     0.14500
C1729       C  0.48457247  0.79192841  0.70590337    -0.05600
C1730       C  0.47263954  0.77887189  0.67861590    -0.05500
C1731       C  0.47187311  0.79660499  0.65188853    -0.23700
C1732       C  0.47887671  0.82831755  0.65339205     0.18600
C1733       C  0.48042969  0.84264997  0.68225654     0.15800
C1734       C  0.48280909  0.82444832  0.70839979    -0.18700
C1735       C  0.48285473  0.87486086  0.68420180    -0.20500
C1736       C  0.49041834  0.89187444  0.65810567    -0.13100
C1737       C  0.49761058  0.87648029  0.63057714     0.03600
C1738       C  0.48704714  0.84550567  0.62728482    -0.25200
H1739       H  0.46598652  0.75475822  0.67712184     0.08700
H1740       H  0.46736954  0.78535642  0.63013682     0.12300
H1741       H  0.48492442  0.83646320  0.72988289     0.12200
H1742       H  0.48205296  0.88652687  0.70615119     0.12000
H1743       H  0.49542586  0.91636321  0.66065889     0.12500
H1744       H  0.48872034  0.83385094  0.60541267     0.14500
C1745       C  0.46347674  0.80342829  0.80287712    -0.05600
C1746       C  0.43177707  0.80201340  0.81134949    -0.05500
C1747       C  0.41955783  0.82423672  0.83129629    -0.23700
C1748       C  0.43876058  0.84843074  0.84259216     0.18600
C1749       C  0.47037693  0.85028143  0.83367251     0.15800
C1750       C  0.48213321  0.82825144  0.81378633    -0.18700
C1751       C  0.48980768  0.87455908  0.84420613    -0.20500
C1752       C  0.47770060  0.89758730  0.86277137    -0.13100
C1753       C  0.44617264  0.89639567  0.87109606     0.03600
C1754       C  0.42681644  0.87158749  0.86152322    -0.25200
H1755       H  0.41666118  0.78355788  0.80289604     0.08700
H1756       H  0.39512054  0.82263237  0.83772381     0.12300
H1757       H  0.50621256  0.83085897  0.80716381     0.12200
H1758       H  0.51407305  0.87629354  0.83724899     0.12000
H1759       H  0.49253864  0.91698914  0.86956175     0.12500
H1760       H  0.40221520  0.87128617  0.86749501     0.14500
C1761       C  0.55306185  0.79287422  0.79923569    -0.05600
C1762       C  0.57073762  0.81804633  0.78786221    -0.05500
C1763       C  0.58038101  0.84225570  0.80727059    -0.23700
C1764       C  0.57152742  0.84223388  0.83824740     0.18600
C1765       C  0.55419461  0.81671214  0.84996038     0.15800
C1766       C  0.54587081  0.79191173  0.83065834    -0.18700
C1767       C  0.54402171  0.81707372  0.88044132    -0.20500
C1768       C  0.55159410  0.84208436  0.89941552    -0.13100
C1769       C  0.56956049  0.86726966  0.88844968     0.03600
C1770       C  0.57928235  0.86733705  0.85765543    -0.25200
H1771       H  0.57555540  0.81977188  0.76358213     0.08700
H1772       H  0.59346650  0.86166884  0.79774718     0.12300
H1773       H  0.53070821  0.77364992  0.83942278     0.12200
H1774       H  0.53042985  0.79786124  0.88971107     0.12000
H1775       H  0.54452592  0.84123391  0.92322800     0.12500
H1776       H  0.59396895  0.88607680  0.84920816     0.14500
C1777       C  0.43659439  0.34644629  0.59954805    -0.05600
C1778       C  0.45526194  0.32157803  0.59112291    -0.05500
C1779       C  0.45719848  0.29578021  0.60998981    -0.23700
C1780       C  0.44007716  0.29427778  0.63739346     0.18600
C1781       C  0.42093079  0.31899473  0.64592496     0.15800
C1782       C  0.41975576  0.34510640  0.62715640    -0.18700
C1783       C  0.40425476  0.31758792  0.67363913    -0.20500
C1784       C  0.40951751  0.29369503  0.69431059    -0.13100
C1785       C  0.43087582  0.27058831  0.68719270     0.03600
C1786       C  0.44389655  0.26971398  0.65759325    -0.25200
H1787       H  0.46735121  0.32167269  0.56930143     0.08700
H1788       H  0.47200613  0.27700107  0.60312687     0.12300
H1789       H  0.40505692  0.36394585  0.63355180     0.12200
H1790       H  0.38913941  0.33617383  0.68035794     0.12000
H1791       H  0.39947190  0.29501251  0.71704831     0.12500
H1792       H  0.46016684  0.25198399  0.65164621     0.14500
C1793       C  0.45164927  0.71240976  0.31101843    -0.05600
C1794       C  0.41923121  0.70742454  0.31128280    -0.05500
C1795       C  0.40595452  0.68424415  0.32983482    -0.23700
C1796       C  0.42500127  0.66657267  0.34879167     0.18600
C1797       C  0.45742792  0.67246704  0.34942855     0.15800
C1798       C  0.47036330  0.69469163  0.33009856    -0.18700
C1799       C  0.47661406  0.65548913  0.36877081    -0.20500
C1800       C  0.46386560  0.63174983  0.38660448    -0.13100
C1801       C  0.43195459  0.62476467  0.38493824     0.03600
C1802       C  0.41253809  0.64234302  0.36624904    -0.25200
H1803       H  0.40443483  0.72095524  0.29678931     0.08700
H1804       H  0.38093878  0.68003311  0.32928404     0.12300
H1805       H  0.49517552  0.69810920  0.33010940     0.12200
H1806       H  0.50152026  0.65999496  0.36944633     0.12000
H1807       H  0.47906463  0.61777117  0.40027700     0.12500
H1808       H  0.38801436  0.63599499  0.36409875     0.14500
C1809       C  0.49206747  0.63190800  0.62973940    -0.05600
C1810       C  0.49818080  0.61784471  0.65816858    -0.05500
C1811       C  0.50083755  0.63583850  0.68470713    -0.23700
C1812       C  0.50293158  0.66802130  0.68256822     0.18600
C1813       C  0.50727188  0.68138769  0.65351665     0.15800
C1814       C  0.50072914  0.66354032  0.62703692    -0.18700
C1815       C  0.51671320  0.71250192  0.65196167    -0.20500
C1816       C  0.51835257  0.73046053  0.67874007    -0.13100
C1817       C  0.50525932  0.71942031  0.70648683     0.03600
C1818       C  0.50001753  0.68712183  0.70859609    -0.25200
H1819       H  0.49529946  0.59309184  0.66077917     0.08700
H1820       H  0.50011571  0.62466172  0.70682016     0.12300
H1821       H  0.49982609  0.67477040  0.60499395     0.12200
H1822       H  0.52275270  0.72293529  0.63019200     0.12000
H1823       H  0.52731420  0.75393286  0.67702223     0.12500
H1824       H  0.49274748  0.67650958  0.72982498     0.14500
C1825       C  0.56180079  0.37974200  0.61774732    -0.05600
C1826       C  0.58526247  0.35975567  0.62748383    -0.05500
C1827       C  0.57824424  0.33501599  0.64677805    -0.23700
C1828       C  0.54805202  0.33124821  0.65853903     0.18600
C1829       C  0.52455412  0.35147136  0.64901364     0.15800
C1830       C  0.53126221  0.37477285  0.62787140    -0.18700
C1831       C  0.49521501  0.34968055  0.66247622    -0.20500
C1832       C  0.48855221  0.32717456  0.68402928    -0.13100
C1833       C  0.51065684  0.30504348  0.69215547     0.03600
C1834       C  0.54114860  0.30846727  0.68046829    -0.25200
H1835       H  0.60955394  0.36489982  0.62274687     0.08700
H1836       H  0.59684227  0.32033610  0.65425181     0.12300
H1837       H  0.51352277  0.39113827  0.62187178     0.12200
H1838       H  0.47731161  0.36578228  0.65639471     0.12000
H1839       H  0.46521731  0.32695924  0.69290610     0.12500
H1840       H  0.55914658  0.29297880  0.68771079     0.14500
C1841       C  0.71379664  0.50450980  0.71508762    -0.05600
C1842       C  0.71104298  0.52573986  0.69106977    -0.05500
C1843       C  0.68665327  0.52264054  0.66997824    -0.23700
C1844       C  0.66486688  0.49809358  0.67255688     0.18600
C1845       C  0.66713323  0.47761540  0.69753529     0.15800
C1846       C  0.69155892  0.48076039  0.71833623    -0.18700
C1847       C  0.64641609  0.45271134  0.70023375    -0.20500
C1848       C  0.62517360  0.44645611  0.67725382    -0.13100
C1849       C  0.62263305  0.46581095  0.65133863     0.03600
C1850       C  0.64242890  0.49219425  0.64960968    -0.25200
H1851       H  0.72823943  0.54423130  0.68820673     0.08700
H1852       H  0.68550588  0.53870543  0.65112751     0.12300
H1853       H  0.69409491  0.46391003  0.73638076     0.12200
H1854       H  0.64820366  0.43658915  0.71900792     0.12000
H1855       H  0.61295187  0.42445652  0.67892097     0.12500
H1856       H  0.64225967  0.50645890  0.62933333     0.14500
C1857       C  0.56655583  0.66086393  0.40300464    -0.05600
C1858       C  0.55742834  0.68958262  0.41452846    -0.05500
C1859       C  0.55020919  0.71347523  0.39464657    -0.23700
C1860       C  0.55296734  0.70924803  0.36295747     0.18600
C1861       C  0.56279071  0.68059047  0.35123278     0.15800
C1862       C  0.56869412  0.65634933  0.37132618    -0.18700
C1863       C  0.56589375  0.67646679  0.31958910    -0.20500
C1864       C  0.55691108  0.69965296  0.29965169    -0.13100
C1865       C  0.54449762  0.72715582  0.31102524     0.03600
C1866       C  0.54420209  0.73249004  0.34279472    -0.25200
H1867       H  0.55637540  0.69359353  0.43897367     0.08700
H1868       H  0.54274671  0.73530092  0.40403242     0.12300
H1869       H  0.57572948  0.63428255  0.36234770     0.12200
H1870       H  0.57384085  0.65479770  0.31024635     0.12000
H1871       H  0.55718084  0.69508716  0.27527364     0.12500
H1872       H  0.53360880  0.75297409  0.35205604     0.14500
C1873       C  0.21214888  0.49928959  0.77581819    -0.05600
C1874       C  0.18308915  0.48757032  0.76583739    -0.05500
C1875       C  0.15694926  0.48906762  0.78475284    -0.23700
C1876       C  0.16017209  0.49979568  0.81482335     0.18600
C1877       C  0.18912706  0.51196700  0.82502056     0.15800
C1878       C  0.21456911  0.51300385  0.80492314    -0.18700
C1879       C  0.19277207  0.52015497  0.85588062    -0.20500
C1880       C  0.16991992  0.51098480  0.87712521    -0.13100
C1881       C  0.14287148  0.49487652  0.86727391     0.03600
C1882       C  0.13613710  0.49461410  0.83583600    -0.25200
H1883       H  0.18070826  0.47646076  0.74374179     0.08700
H1884       H  0.13493560  0.47925987  0.77680793     0.12300
H1885       H  0.23667861  0.52278388  0.81263340     0.12200
H1886       H  0.21456005  0.53029777  0.86400328     0.12000
H1887       H  0.17482391  0.51355074  0.90127672     0.12500
H1888       H  0.11376402  0.48614366  0.82759018     0.14500
C1889       C  0.30732321  0.45523542  0.69777233    -0.05600
C1890       C  0.30600079  0.42294177  0.69592040    -0.05500
C1891       C  0.32415319  0.40761116  0.67423470    -0.23700
C1892       C  0.34439786  0.42446129  0.65481943     0.18600
C1893       C  0.34674572  0.45685844  0.65748752     0.15800
C1894       C  0.32769728  0.47192260  0.67838177    -0.18700
C1895       C  0.36765249  0.47374424  0.63878992    -0.20500
C1896       C  0.38537258  0.45864947  0.61670259    -0.13100
C1897       C  0.38181620  0.42673027  0.61282735     0.03600
C1898       C  0.36149358  0.40968697  0.63202945    -0.25200
H1899       H  0.29064675  0.40972699  0.71093771     0.08700
H1900       H  0.32235978  0.38267524  0.67260672     0.12300
H1901       H  0.32934295  0.49664677  0.67986114     0.12200
H1902       H  0.36962067  0.49862904  0.64065628     0.12000
H1903       H  0.40030234  0.47203379  0.60141644     0.12500
H1904       H  0.35769841  0.38517807  0.62810051     0.14500
C1905       C  0.39242336  0.57053079  0.62873364    -0.05600
C1906       C  0.36197709  0.57433673  0.61778334    -0.05500
C1907       C  0.33621990  0.56992725  0.63726310    -0.23700
C1908       C  0.34057395  0.56124163  0.66780017     0.18600
C1909       C  0.37097755  0.55552372  0.67826208     0.15800
C1910       C  0.39640238  0.55937314  0.65854747    -0.18700
C1911       C  0.37560877  0.54556762  0.70819411    -0.20500
C1912       C  0.35013360  0.53918662  0.72707821    -0.13100
C1913       C  0.31952594  0.54382309  0.71681101     0.03600
C1914       C  0.31505547  0.55643754  0.68758984    -0.25200
H1915       H  0.35802716  0.58242962  0.59480772     0.08700
H1916       H  0.31299258  0.57373615  0.62858867     0.12300
H1917       H  0.41957793  0.55462649  0.66687716     0.12200
H1918       H  0.39885008  0.54095120  0.71641567     0.12000
H1919       H  0.35461189  0.52796413  0.74856134     0.12500
H1920       H  0.29156423  0.55964100  0.67926953     0.14500
C1921       C  0.29699222  0.31047108  0.04651703    -0.05600
C1922       C  0.29292786  0.32088284  0.07673569    -0.05500
C1923       C  0.31328293  0.34312326  0.08927205    -0.23700
C1924       C  0.33842295  0.35502293  0.07199258     0.18600
C1925       C  0.34442403  0.34301468  0.04262719     0.15800
C1926       C  0.32404958  0.32047139  0.03037080    -0.18700
C1927       C  0.36995220  0.35472565  0.02551552    -0.20500
C1928       C  0.38817706  0.37951744  0.03670942    -0.13100
C1929       C  0.38120766  0.39257636  0.06521151     0.03600
C1930       C  0.35705962  0.37939168  0.08321953    -0.25200
H1931       H  0.27375899  0.31225249  0.09065827     0.08700
H1932       H  0.30887045  0.35160417  0.11220131     0.12300
H1933       H  0.32874462  0.31225547  0.00753194     0.12200
H1934       H  0.37507379  0.34548857  0.00302301     0.12000
H1935       H  0.40678509  0.38927467  0.02265455     0.12500
H1936       H  0.35207572  0.38891657  0.10565142     0.14500
C1937       C  0.54785924  0.72248105  0.80187319    -0.05600
C1938       C  0.57712480  0.71097064  0.79411242    -0.05500
C1939       C  0.58911349  0.68609409  0.81037734    -0.23700
C1940       C  0.57139665  0.67197610  0.83387372     0.18600
C1941       C  0.54288870  0.68478539  0.84300226     0.15800
C1942       C  0.53196629  0.71041694  0.82749764    -0.18700
C1943       C  0.52475848  0.67057473  0.86609325    -0.20500
C1944       C  0.53378720  0.64256071  0.87861596    -0.13100
C1945       C  0.56118539  0.62875852  0.86842335     0.03600
C1946       C  0.58065592  0.64430192  0.84710262    -0.25200
H1947       H  0.58974324  0.71994720  0.77442992     0.08700
H1948       H  0.61123733  0.67668152  0.80332378     0.12300
H1949       H  0.51012538  0.71978058  0.83434650     0.12200
H1950       H  0.50297488  0.68041122  0.87349324     0.12000
H1951       H  0.51880193  0.63106819  0.89527367     0.12500
H1952       H  0.60236868  0.63411303  0.83984157     0.14500
C1953       C  0.71385195  0.50191542  0.78822086    -0.05600
C1954       C  0.71670091  0.48987449  0.81814325    -0.05500
C1955       C  0.69332453  0.49350486  0.84047768    -0.23700
C1956       C  0.66504030  0.50726877  0.83329453     0.18600
C1957       C  0.66013723  0.51644866  0.80287284     0.15800
C1958       C  0.68481424  0.51527638  0.78109499    -0.18700
C1959       C  0.63058885  0.52693865  0.79490595    -0.20500
C1960       C  0.60753026  0.53142307  0.81734161    -0.13100
C1961       C  0.61408621  0.52838354  0.84890752     0.03600
C1962       C  0.64215776  0.51321234  0.85612397    -0.25200
H1963       H  0.73712699  0.47758405  0.82494657     0.08700
H1964       H  0.69739958  0.48533301  0.86345924     0.12300
H1965       H  0.68128880  0.52580805  0.75911555     0.12200
H1966       H  0.62541983  0.53225396  0.77130823     0.12000
H1967       H  0.58514833  0.53931559  0.80973965     0.12500
H1968       H  0.64746225  0.50856788  0.87983596     0.14500
C1969       C  0.42492966  0.64171364  0.87918173    -0.05600
C1970       C  0.42669892  0.62930097  0.84956511    -0.05500
C1971       C  0.43374744  0.64852757  0.82469538    -0.23700
C1972       C  0.43966224  0.68023105  0.82932821     0.18600
C1973       C  0.43928561  0.69236526  0.85931120     0.15800
C1974       C  0.43212844  0.67308420  0.88392700    -0.18700
C1975       C  0.44668545  0.72349777  0.86440495    -0.20500
C1976       C  0.45608703  0.74223570  0.84017194    -0.13100
C1977       C  0.45673344  0.73069797  0.80996190     0.03600
C1978       C  0.44717994  0.69978583  0.80474675    -0.25200
H1979       H  0.42125990  0.60512605  0.84546860     0.08700
H1980       H  0.43439061  0.63867904  0.80189457     0.12300
H1981       H  0.43151275  0.68263363  0.90688627     0.12200
H1982       H  0.44712389  0.73290358  0.88740894     0.12000
H1983       H  0.46579481  0.76467824  0.84594347     0.12500
H1984       H  0.44765993  0.69037266  0.78175254     0.14500
C1985       C  0.30993267  0.53697131  0.78684567    -0.05600
C1986       C  0.31366003  0.56920553  0.78797657    -0.05500
C1987       C  0.33086088  0.58313434  0.81165922    -0.23700
C1988       C  0.34447878  0.56484951  0.83423649     0.18600
C1989       C  0.34118705  0.53246371  0.83272824     0.15800
C1990       C  0.32404589  0.51903196  0.80920906    -0.18700
C1991       C  0.35445879  0.51386913  0.85515832    -0.20500
C1992       C  0.37030412  0.52735552  0.87963335    -0.13100
C1993       C  0.37312555  0.55943092  0.88156962     0.03600
C1994       C  0.36051926  0.57818792  0.85881450    -0.25200
H1995       H  0.30295652  0.58347935  0.77088483     0.08700
H1996       H  0.33322902  0.60807167  0.81252830     0.12300
H1997       H  0.32185305  0.49439642  0.80854744     0.12200
H1998       H  0.35184992  0.48900948  0.85419371     0.12000
H1999       H  0.37940152  0.51291818  0.89752002     0.12500
H2000       H  0.36207724  0.60310972  0.86103726     0.14500
C2001       C  0.28939772  0.72418001  0.00345340    -0.05600
C2002       C  0.31705267  0.72285431  0.02056480    -0.05500
C2003       C  0.33834916  0.69915771  0.01559846    -0.23700
C2004       C  0.33234317  0.67633052  0.99336141     0.18600
C2005       C  0.30433901  0.67759508  0.97646136     0.15800
C2006       C  0.28346150  0.70160277  0.98119025    -0.18700
C2007       C  0.29812122  0.65566601  0.95392731    -0.20500
C2008       C  0.31993078  0.63355244  0.94691024    -0.13100
C2009       C  0.34851883  0.63155684  0.96291990     0.03600
C2010       C  0.35435443  0.65332189  0.98649897    -0.25200
H2011       H  0.32225149  0.74033384  0.03769203     0.08700
H2012       H  0.35964703  0.69895078  0.02881995     0.12300
H2013       H  0.26284375  0.70308391  0.96706101     0.12200
H2014       H  0.27702619  0.65662825  0.94041816     0.12000
H2015       H  0.31497590  0.61976019  0.92683668     0.12500
H2016       H  0.37671149  0.65368579  0.99795510     0.14500
C2017       C  0.28408855  0.30789681  0.95707063    -0.05600
C2018       C  0.30099144  0.29471197  0.93311866    -0.05500
C2019       C  0.32572152  0.31110883  0.91955222    -0.23700
C2020       C  0.33484244  0.34022477  0.93098696     0.18600
C2021       C  0.31741787  0.35417954  0.95453429     0.15800
C2022       C  0.29123896  0.33829765  0.96667597    -0.18700
C2023       C  0.32790224  0.38260152  0.96692450    -0.20500
C2024       C  0.35647056  0.39601828  0.95736329    -0.13100
C2025       C  0.37444235  0.38146924  0.93490426     0.03600
C2026       C  0.36237951  0.35451837  0.92062135    -0.25200
H2027       H  0.29590095  0.27118933  0.92590251     0.08700
H2028       H  0.33903892  0.30014542  0.90156320     0.12300
H2029       H  0.27849595  0.34813525  0.98570627     0.12200
H2030       H  0.31487743  0.39357063  0.98510528     0.12000
H2031       H  0.36504759  0.41702257  0.96823822     0.12500
H2032       H  0.37527232  0.34372007  0.90221253     0.14500
C2033       C  0.31463524  0.44971358  0.76728051    -0.05600
C2034       C  0.34583195  0.45434385  0.75748698    -0.05500
C2035       C  0.37073831  0.44741171  0.77644335    -0.23700
C2036       C  0.36517779  0.43762435  0.80642814     0.18600
C2037       C  0.33414182  0.43262310  0.81669272     0.15800
C2038       C  0.30915429  0.43715638  0.79654771    -0.18700
C2039       C  0.32860144  0.42538782  0.84751268    -0.20500
C2040       C  0.35355489  0.42287587  0.86779328    -0.13100
C2041       C  0.38451157  0.42644395  0.85742262     0.03600
C2042       C  0.39012329  0.43389759  0.82663308    -0.25200
H2043       H  0.35141124  0.46578037  0.73623123     0.08700
H2044       H  0.39436486  0.45188348  0.76836293     0.12300
H2045       H  0.28536649  0.43428196  0.80481482     0.12200
H2046       H  0.30496975  0.42214888  0.85604794     0.12000
H2047       H  0.34856639  0.41709478  0.89133946     0.12500
H2048       H  0.41395720  0.43689020  0.81850000     0.14500
C2049       C  0.47156830  0.35654681  0.88031770    -0.05600
C2050       C  0.46767076  0.32572384  0.89055006    -0.05500
C2051       C  0.46874594  0.30114410  0.86982952    -0.23700
C2052       C  0.47703090  0.30660773  0.83938462     0.18600
C2053       C  0.48900232  0.33613675  0.83121464     0.15800
C2054       C  0.48663623  0.36098302  0.85190131    -0.18700
C2055       C  0.50065912  0.34082275  0.80169650    -0.20500
C2056       C  0.49860253  0.31713503  0.78007588    -0.13100
C2057       C  0.48353478  0.28863111  0.78687829     0.03600
C2058       C  0.47282242  0.28353439  0.81689250    -0.25200
H2059       H  0.46125703  0.32026607  0.91380481     0.08700
H2060       H  0.46201548  0.27813134  0.87736297     0.12300
H2061       H  0.49208893  0.38424807  0.84418570     0.12200
H2062       H  0.51066971  0.36301356  0.79507662     0.12000
H2063       H  0.50791537  0.32170619  0.75746941     0.12500
H2064       H  0.46079414  0.26205339  0.82262746     0.14500
C2065       C  0.52000075  0.64688659  0.12983376    -0.05600
C2066       C  0.48954208  0.64091727  0.14074678    -0.05500
C2067       C  0.47724746  0.65922966  0.16455311    -0.23700
C2068       C  0.49546819  0.68329369  0.17785446     0.18600
C2069       C  0.52553826  0.68975200  0.16605326     0.15800
C2070       C  0.53718963  0.67184020  0.14260955    -0.18700
C2071       C  0.54465351  0.71298967  0.17884249    -0.20500
C2072       C  0.53426865  0.72979018  0.20370893    -0.13100
C2073       C  0.50462075  0.72374745  0.21597973     0.03600
C2074       C  0.48509639  0.70040393  0.20327491    -0.25200
H2075       H  0.47602950  0.62135536  0.13220090     0.08700
H2076       H  0.45407447  0.65384479  0.17332828     0.12300
H2077       H  0.56129341  0.67578588  0.13612531     0.12200
H2078       H  0.56789589  0.71783042  0.16989969     0.12000
H2079       H  0.54946527  0.74743812  0.21364417     0.12500
H2080       H  0.46223754  0.69569415  0.21316382     0.14500
C2081       C  0.65675004  0.40309861  0.01936966    -0.05600
C2082       C  0.68842010  0.40823235  0.02706223    -0.05500
C2083       C  0.70998273  0.38519713  0.02236585    -0.23700
C2084       C  0.70055458  0.35730210  0.00889806     0.18600
C2085       C  0.67072820  0.35434072  0.99563023     0.15800
C2086       C  0.64907971  0.37771595  0.00032253    -0.18700
C2087       C  0.66211170  0.32673260  0.98083104    -0.20500
C2088       C  0.68204263  0.30162263  0.98129346    -0.13100
C2089       C  0.71039331  0.30338002  0.99749127     0.03600
C2090       C  0.71957734  0.33170216  0.01067289    -0.25200
H2091       H  0.69656192  0.42819517  0.03963022     0.08700
H2092       H  0.73339300  0.38833866  0.03131821     0.12300
H2093       H  0.62504894  0.37374903  0.99342062     0.12200
H2094       H  0.63956865  0.32418011  0.96988348     0.12000
H2095       H  0.67466524  0.28068930  0.96961565     0.12500
H2096       H  0.74042074  0.33348060  0.02435069     0.14500
C2097       C  0.02452480  0.64906434  0.36868911    -0.05600
C2098       C  0.99204548  0.65103011  0.36465377    -0.05500
C2099       C  0.97975038  0.67066255  0.34187957    -0.23700
C2100       C  0.99959804  0.68885953  0.32271469     0.18600
C2101       C  0.03203563  0.68761188  0.32733176     0.15800
C2102       C  0.04396097  0.66803367  0.34973848    -0.18700
C2103       C  0.05246782  0.70553806  0.30909285    -0.20500
C2104       C  0.04109546  0.72454617  0.28616698    -0.13100
C2105       C  0.00903320  0.72605284  0.28045614     0.03600
C2106       C  0.98814362  0.70782725  0.29877127    -0.25200
H2107       H  0.97625787  0.63701647  0.37846061     0.08700
H2108       H  0.95468700  0.67131785  0.33900677     0.12300
H2109       H  0.06910815  0.66696431  0.35204294     0.12200
H2110       H  0.07748078  0.70464631  0.31238102     0.12000
H2111       H  0.05756631  0.73765686  0.27218185     0.12500
H2112       H  0.96331345  0.70839547  0.29435714     0.14500
C2113       C  0.90686186  0.44450049  0.63624543    -0.05600
C2114       C  0.91806406  0.45724390  0.66385821    -0.05500
C2115       C  0.89792575  0.46328269  0.68818829    -0.23700
C2116       C  0.86575479  0.45796304  0.68526233     0.18600
C2117       C  0.85358982  0.44709183  0.65716434     0.15800
C2118       C  0.87426213  0.44013136  0.63276287    -0.18700
C2119       C  0.82103497  0.44333316  0.65429800    -0.20500
C2120       C  0.80102299  0.45130150  0.67860037    -0.13100
C2121       C  0.81304334  0.46199066  0.70673134     0.03600
C2122       C  0.84562401  0.46439451  0.70985146    -0.25200
H2123       H  0.94287205  0.46120864  0.66717174     0.08700
H2124       H  0.90760107  0.47215001  0.70940752     0.12300
H2125       H  0.86514985  0.43013109  0.61179621     0.12200
H2126       H  0.81100267  0.43520775  0.63296765     0.12000
H2127       H  0.77601028  0.44996905  0.67515382     0.12500
H2128       H  0.85557129  0.47357968  0.73056916     0.14500
C2129       C  0.99096315  0.36835042  0.62042859    -0.05600
C2130       C  0.99068976  0.33656063  0.61272785    -0.05500
C2131       C  0.99578817  0.31380283  0.63486065    -0.23700
C2132       C  0.00375379  0.32199011  0.66495493     0.18600
C2133       C  0.01009986  0.35330239  0.67162309     0.15800
C2134       C  0.00412971  0.37622536  0.64935513    -0.18700
C2135       C  0.02067817  0.36118752  0.70101828    -0.20500
C2136       C  0.02368184  0.33857255  0.72376407    -0.13100
C2137       C  0.01490786  0.30731411  0.71856692     0.03600
C2138       C  0.00493690  0.29953729  0.68846269    -0.25200
H2139       H  0.98384211  0.32893772  0.59010725     0.08700
H2140       H  0.99249032  0.28972842  0.62860688     0.12300
H2141       H  0.00718797  0.40031254  0.65562050     0.12200
H2142       H  0.02644463  0.38502210  0.70659073     0.12000
H2143       H  0.03281441  0.34608178  0.74558185     0.12500
H2144       H  0.99684005  0.27642315  0.68307848     0.14500
C2145       C  0.88259780  0.57708599  0.62462413    -0.05600
C2146       C  0.89810536  0.55477817  0.64161982    -0.05500
C2147       C  0.88592423  0.54486198  0.66998558    -0.23700
C2148       C  0.85766362  0.55654725  0.68131709     0.18600
C2149       C  0.84302274  0.58020760  0.66514511     0.15800
C2150       C  0.85615052  0.59099407  0.63775747    -0.18700
C2151       C  0.81431188  0.59138621  0.67545330    -0.20500
C2152       C  0.79877120  0.57728881  0.70000810    -0.13100
C2153       C  0.81246033  0.55305974  0.71572376     0.03600
C2154       C  0.84268728  0.54385330  0.70731370    -0.25200
H2155       H  0.91885113  0.54421258  0.63248392     0.08700
H2156       H  0.89783177  0.52711657  0.68236308     0.12300
H2157       H  0.84477541  0.60954443  0.62596241     0.12200
H2158       H  0.80284190  0.60956502  0.66318865     0.12000
H2159       H  0.77537889  0.58430603  0.70588382     0.12500
H2160       H  0.85345774  0.52543484  0.71963884     0.14500
C2161       C  0.21496083  0.51415551  0.70835678    -0.05600
C2162       C  0.20004901  0.54073955  0.71863182    -0.05500
C2163       C  0.17414534  0.55141657  0.70340077    -0.23700
C2164       C  0.16337605  0.53616663  0.67711346     0.18600
C2165       C  0.17842996  0.50961984  0.66620391     0.15800
C2166       C  0.20430855  0.49864116  0.68204266    -0.18700
C2167       C  0.16803732  0.49545307  0.63907410    -0.20500
C2168       C  0.14426311  0.50867336  0.62197080    -0.13100
C2169       C  0.12981642  0.53571703  0.63229659     0.03600
C2170       C  0.13910660  0.54853400  0.66052408    -0.25200
H2171       H  0.20841330  0.55310645  0.73866483     0.08700
H2172       H  0.16296526  0.57200444  0.71178759     0.12300
H2173       H  0.21614579  0.47826092  0.67403973     0.12200
H2174       H  0.17943400  0.47518481  0.63023201     0.12000
H2175       H  0.13883862  0.49881157  0.59983998     0.12500
H2176       H  0.12965007  0.57021247  0.66824046     0.14500
C2177       C  0.98575818  0.72835786  0.79101327    -0.05600
C2178       C  0.96502214  0.74163883  0.81195519    -0.05500
C2179       C  0.95935362  0.72810694  0.84025180    -0.23700
C2180       C  0.97404485  0.70074304  0.84801854     0.18600
C2181       C  0.99554347  0.68745006  0.82752134     0.15800
C2182       C  0.00124908  0.70133037  0.79889483    -0.18700
C2183       C  0.00967110  0.65979397  0.83552786    -0.20500
C2184       C  0.00039509  0.64411898  0.86215402    -0.13100
C2185       C  0.97709271  0.65594385  0.88162162     0.03600
C2186       C  0.96544465  0.68531384  0.87488679    -0.25200
H2187       H  0.95273546  0.76235923  0.80612602     0.08700
H2188       H  0.94272240  0.73855206  0.85568019     0.12300
H2189       H  0.01735347  0.69112742  0.78276248     0.12200
H2190       H  0.02631599  0.64922607  0.82021328     0.12000
H2191       H  0.00918104  0.62121786  0.86579498     0.12500
H2192       H  0.94679953  0.69490747  0.88833836     0.14500
C2193       C  0.02939394  0.87003200  0.86901715    -0.05600
C2194       C  0.00108539  0.87825753  0.85538535    -0.05500
C2195       C  0.98878671  0.86085296  0.83110485    -0.23700
C2196       C  0.00463267  0.83515317  0.82001320     0.18600
C2197       C  0.03251857  0.82620912  0.83422716     0.15800
C2198       C  0.04459395  0.84362147  0.85834703    -0.18700
C2199       C  0.04857162  0.80053965  0.82350039    -0.20500
C2200       C  0.03711645  0.78387677  0.79865636    -0.13100
C2201       C  0.00969643  0.79285061  0.78421128     0.03600
C2202       C  0.99350283  0.81851059  0.79467506    -0.25200
H2203       H  0.98908827  0.89884751  0.86211151     0.08700
H2204       H  0.96738488  0.86801398  0.82043324     0.12300
H2205       H  0.06695471  0.83752582  0.86782194     0.12200
H2206       H  0.06998385  0.79345740  0.83422350     0.12000
H2207       H  0.04965320  0.76397131  0.79055248     0.12500
H2208       H  0.97219941  0.82509121  0.78339920     0.14500
C2209       C  0.05726745  0.62208058  0.62291827    -0.05600
C2210       C  0.02552650  0.61827667  0.63018131    -0.05500
C2211       C  0.01103950  0.63934643  0.64960959    -0.23700
C2212       C  0.02830318  0.66422126  0.66219352     0.18600
C2213       C  0.06031301  0.66802199  0.65501736     0.15800
C2214       C  0.07455711  0.64690183  0.63541659    -0.18700
C2215       C  0.07770964  0.69239164  0.66821590    -0.20500
C2216       C  0.06321770  0.71356444  0.68750211    -0.13100
C2217       C  0.03101971  0.71099917  0.69348020     0.03600
C2218       C  0.01409256  0.68536336  0.68178653    -0.25200
H2219       H  0.01228541  0.59850873  0.62159378     0.08700
H2220       H  0.98651793  0.63595228  0.65515440     0.12300
H2221       H  0.09945970  0.64880793  0.63110551     0.12200
H2222       H  0.10243018  0.69526605  0.66335839     0.12000
H2223       H  0.07699191  0.73246339  0.69708631     0.12500
H2224       H  0.98955849  0.68217800  0.68695910     0.14500
C2225       C  0.94142735  0.72946572  0.69088552    -0.05600
C2226       C  0.91727061  0.70869089  0.69877551    -0.05500
C2227       C  0.90838996  0.68520013  0.67842731    -0.23700
C2228       C  0.92489072  0.68145299  0.65087820     0.18600
C2229       C  0.94843812  0.70318295  0.64244956     0.15800
C2230       C  0.95542628  0.72788867  0.66189878    -0.18700
C2231       C  0.96607134  0.69873276  0.61575362    -0.20500
C2232       C  0.95984763  0.67323407  0.59703980    -0.13100
C2233       C  0.93607784  0.65200744  0.60492120     0.03600
C2234       C  0.91875885  0.65607080  0.63188856    -0.25200
H2235       H  0.90674080  0.70948620  0.72133203     0.08700
H2236       H  0.89014535  0.66880379  0.68509045     0.12300
H2237       H  0.97463629  0.74353359  0.65619118     0.12200
H2238       H  0.98455466  0.71498108  0.60935121     0.12000
H2239       H  0.97265442  0.67070253  0.57578730     0.12500
H2240       H  0.89974179  0.64017518  0.63741630     0.14500
C2241       C  0.70314039  0.21518910  0.50332414    -0.05600
C2242       C  0.67385713  0.22403650  0.49185201    -0.05500
C2243       C  0.64794377  0.20393709  0.49264970    -0.23700
C2244       C  0.65115845  0.17367242  0.50272466     0.18600
C2245       C  0.68116925  0.16315046  0.50991433     0.15800
C2246       C  0.70652546  0.18420042  0.51187819    -0.18700
C2247       C  0.68490297  0.13189107  0.51624267    -0.20500
C2248       C  0.65868454  0.11264648  0.52032797    -0.13100
C2249       C  0.62853684  0.12516316  0.52131551     0.03600
C2250       C  0.62482297  0.15446666  0.50815749    -0.25200
H2251       H  0.67042878  0.24685124  0.48274780     0.08700
H2252       H  0.62535982  0.21222546  0.48582392     0.12300
H2253       H  0.72813336  0.17649192  0.52148651     0.12200
H2254       H  0.70794686  0.12265546  0.51939474     0.12000
H2255       H  0.66245345  0.08872437  0.52578614     0.12500
H2256       H  0.60166149  0.16380604  0.50618094     0.14500
C2257       C  0.61764510  0.37743123  0.44999527    -0.05600
C2258       C  0.63263956  0.38863656  0.47629721    -0.05500
C2259       C  0.66031824  0.37539160  0.48603725    -0.23700
C2260       C  0.67323550  0.35081790  0.46957879     0.18600
C2261       C  0.65896294  0.34035905  0.44233754     0.15800
C2262       C  0.63139103  0.35384555  0.43266416    -0.18700
C2263       C  0.67198077  0.31594099  0.42574325    -0.20500
C2264       C  0.69784598  0.30068544  0.43711390    -0.13100
C2265       C  0.71112715  0.30993432  0.46491876     0.03600
C2266       C  0.69939786  0.33565971  0.48049361    -0.25200
H2267       H  0.62261496  0.40714671  0.48957140     0.08700
H2268       H  0.67137246  0.38403859  0.50661074     0.12300
H2269       H  0.62044202  0.34581670  0.41170766     0.12200
H2270       H  0.66132880  0.30777846  0.40471348     0.12000
H2271       H  0.70630374  0.28054339  0.42520058     0.12500
H2272       H  0.70967475  0.34290248  0.50186957     0.14500
C2273       C  0.88997834  0.37705801  0.56371258    -0.05600
C2274       C  0.88750620  0.37350657  0.53201367    -0.05500
C2275       C  0.86474115  0.35363875  0.51968737    -0.23700
C2276       C  0.84389688  0.33736559  0.53894714     0.18600
C2277       C  0.84516349  0.34184820  0.57087241     0.15800
C2278       C  0.86848626  0.36157481  0.58313939    -0.18700
C2279       C  0.82364615  0.32582844  0.58978411    -0.20500
C2280       C  0.80068973  0.30607960  0.57699090    -0.13100
C2281       C  0.79927602  0.30168443  0.54515471     0.03600
C2282       C  0.82186990  0.31663512  0.52662246    -0.25200
H2283       H  0.90432016  0.38476070  0.51690982     0.08700
H2284       H  0.86390301  0.35045577  0.49512410     0.12300
H2285       H  0.87079236  0.36398863  0.60771718     0.12200
H2286       H  0.82429304  0.32891716  0.61436779     0.12000
H2287       H  0.78370097  0.29472409  0.59180475     0.12500
H2288       H  0.82206272  0.31294079  0.50228504     0.14500
C2289       C  0.72764021  0.31341640  0.55419555    -0.05600
C2290       C  0.74162067  0.34324206  0.55540744    -0.05500
C2291       C  0.72406419  0.36889044  0.56310967    -0.23700
C2292       C  0.69167586  0.36574944  0.56646296     0.18600
C2293       C  0.67736000  0.33617562  0.56498311     0.15800
C2294       C  0.69585484  0.31015520  0.56215194    -0.18700
C2295       C  0.64474900  0.33328035  0.56391010    -0.20500
C2296       C  0.62650037  0.35949259  0.56557187    -0.13100
C2297       C  0.64049407  0.38861268  0.57101149     0.03600
C2298       C  0.67323125  0.39171862  0.57020250    -0.25200
H2299       H  0.76516206  0.34780241  0.54764977     0.08700
H2300       H  0.73534873  0.39153072  0.56347892     0.12300
H2301       H  0.68463848  0.28746916  0.56208557     0.12200
H2302       H  0.63338098  0.31081442  0.56144679     0.12000
H2303       H  0.60137320  0.35649113  0.56528326     0.12500
H2304       H  0.68431735  0.41431383  0.57281091     0.14500
C2305       C  0.85678644  0.39490211  0.43325085    -0.05600
C2306       C  0.83404249  0.40650674  0.45308292    -0.05500
C2307       C  0.80939768  0.38760662  0.46313381    -0.23700
C2308       C  0.80709943  0.35687589  0.45325130     0.18600
C2309       C  0.83027642  0.34478486  0.43368128     0.15800
C2310       C  0.85509189  0.36398739  0.42374432    -0.18700
C2311       C  0.82831906  0.31366802  0.42474059    -0.20500
C2312       C  0.80462091  0.29435012  0.43650156    -0.13100
C2313       C  0.78198837  0.30619657  0.45629634     0.03600
C2314       C  0.78269757  0.33771766  0.46372613    -0.25200
H2315       H  0.83485193  0.43058084  0.45990361     0.08700
H2316       H  0.79198080  0.39709057  0.47834533     0.12300
H2317       H  0.87232141  0.35534811  0.40779170     0.12200
H2318       H  0.84585687  0.30399945  0.40979779     0.12000
H2319       H  0.80471706  0.26988826  0.43130081     0.12500
H2320       H  0.76615509  0.34662236  0.48020254     0.14500
C2321       C  0.12355146  0.94769288  0.62953372    -0.05600
C2322       C  0.14136725  0.92447708  0.64304091    -0.05500
C2323       C  0.15862279  0.93038059  0.66942991    -0.23700
C2324       C  0.15808824  0.95952101  0.68317194     0.18600
C2325       C  0.13795735  0.98210595  0.67142719     0.15800
C2326       C  0.12079375  0.97609980  0.64456839    -0.18700
C2327       C  0.13670847  0.01087334  0.68584232    -0.20500
C2328       C  0.15697468  0.01802419  0.70980930    -0.13100
C2329       C  0.17879683  0.99668897  0.72001465     0.03600
C2330       C  0.17855354  0.96700719  0.70732557    -0.25200
H2331       H  0.14342743  0.90219453  0.63197773     0.08700
H2332       H  0.17339859  0.91257883  0.67829587     0.12300
H2333       H  0.10702547  0.99402188  0.63440001     0.12200
H2334       H  0.12085829  0.02819262  0.67793072     0.12000
H2335       H  0.15593094  0.04055789  0.72028649     0.12500
H2336       H  0.19541896  0.95049080  0.71498649     0.14500
C2337       C  0.07127711  0.87414303  0.61694587    -0.05600
C2338       C  0.06807048  0.88556888  0.64683320    -0.05500
C2339       C  0.06138810  0.86550855  0.67097567    -0.23700
C2340       C  0.05678966  0.83384899  0.66544145     0.18600
C2341       C  0.05789996  0.82240822  0.63523067     0.15800
C2342       C  0.06556828  0.84253765  0.61119527    -0.18700
C2343       C  0.05079210  0.79117915  0.62959689    -0.20500
C2344       C  0.04062001  0.77201073  0.65346261    -0.13100
C2345       C  0.03952436  0.78314732  0.68379689     0.03600
C2346       C  0.04973034  0.81372039  0.68954653    -0.25200
H2347       H  0.07228344  0.90976521  0.65187565     0.08700
H2348       H  0.05980548  0.87476041  0.69397624     0.12300
H2349       H  0.06731801  0.83362643  0.58806110     0.12200
H2350       H  0.05110588  0.78209344  0.60647743     0.12000
H2351       H  0.03153268  0.74933483  0.64753633     0.12500
H2352       H  0.04975445  0.82267239  0.71272022     0.14500
C2353       C  0.20184673  0.08369986  0.71979216    -0.05600
C2354       C  0.17945818  0.10367681  0.73210243    -0.05500
C2355       C  0.15232813  0.10995166  0.71586225    -0.23700
C2356       C  0.14784116  0.09769497  0.68644218     0.18600
C2357       C  0.17278203  0.08352510  0.67147670     0.15800
C2358       C  0.20052040  0.07861375  0.68767409    -0.18700
C2359       C  0.16856935  0.07219307  0.64159889    -0.20500
C2360       C  0.13943905  0.07391784  0.62718492    -0.13100
C2361       C  0.11374638  0.08719931  0.64216508     0.03600
C2362       C  0.11872162  0.09899528  0.67217944    -0.25200
H2363       H  0.18146395  0.11345993  0.75461676     0.08700
H2364       H  0.13420546  0.12306085  0.72695401     0.12300
H2365       H  0.21963383  0.06811592  0.67560804     0.12200
H2366       H  0.18756336  0.06117490  0.62966300     0.12000
H2367       H  0.13743592  0.06492304  0.60421500     0.12500
H2368       H  0.10026099  0.10893754  0.68546391     0.14500
C2369       C  0.02132413  0.23503665  0.71387711    -0.05600
C2370       C  0.04881073  0.24042055  0.69714407    -0.05500
C2371       C  0.05530462  0.22255212  0.67153140    -0.23700
C2372       C  0.03453944  0.19877227  0.66253941     0.18600
C2373       C  0.00646913  0.19335193  0.67879045     0.15800
C2374       C  0.99997369  0.21165529  0.70461056    -0.18700
C2375       C  0.98652138  0.16868305  0.66985050    -0.20500
C2376       C  0.99545697  0.14834134  0.64637791    -0.13100
C2377       C  0.02404554  0.15294116  0.63090217     0.03600
C2378       C  0.04279821  0.17899296  0.63886488    -0.25200
H2379       H  0.06556175  0.25805262  0.70438105     0.08700
H2380       H  0.07706679  0.22669410  0.65931050     0.12300
H2381       H  0.97891666  0.20731528  0.71792093     0.12200
H2382       H  0.96490121  0.16409088  0.68214575     0.12000
H2383       H  0.98107398  0.12800430  0.64183676     0.12500
H2384       H  0.06582274  0.18222632  0.62887382     0.14500
C2385       C  0.10693879  0.02409729  0.35827206    -0.05600
C2386       C  0.12085638  0.99623868  0.36671972    -0.05500
C2387       C  0.14706028  0.98514132  0.35058812    -0.23700
C2388       C  0.16074303  0.00231289  0.32642799     0.18600
C2389       C  0.14657739  0.02979711  0.31744819     0.15800
C2390       C  0.12005250  0.03994790  0.33276357    -0.18700
C2391       C  0.16027570  0.04829456  0.29460089    -0.20500
C2392       C  0.18805939  0.03986767  0.28072054    -0.13100
C2393       C  0.20242484  0.01233877  0.28866168     0.03600
C2394       C  0.18883201  0.99354467  0.31179746    -0.25200
H2395       H  0.11282864  0.98417253  0.38701221     0.08700
H2396       H  0.15766610  0.96406426  0.35814087     0.12300
H2397       H  0.11216376  0.06258773  0.32663156     0.12200
H2398       H  0.14979180  0.06972990  0.28784422     0.12000
H2399       H  0.19836407  0.05486657  0.26346587     0.12500
H2400       H  0.20004853  0.97241304  0.31829266     0.14500
C2401       C  0.92890235  0.88777098  0.62271262    -0.05600
C2402       C  0.95577582  0.87382954  0.61131928    -0.05500
C2403       C  0.96681477  0.84717934  0.62518077    -0.23700
C2404       C  0.95090502  0.83423261  0.65042427     0.18600
C2405       C  0.92266601  0.84698868  0.66059801     0.15800
C2406       C  0.91179403  0.87351555  0.64654800    -0.18700
C2407       C  0.90667238  0.83401218  0.68573380    -0.20500
C2408       C  0.91965436  0.80976961  0.70194625    -0.13100
C2409       C  0.94853513  0.79819605  0.69301836     0.03600
C2410       C  0.96350884  0.80979075  0.66666472    -0.25200
H2411       H  0.96906401  0.88444235  0.59285670     0.08700
H2412       H  0.98839855  0.83744227  0.61699016     0.12300
H2413       H  0.89053892  0.88381614  0.65492221     0.12200
H2414       H  0.88485167  0.84347664  0.69362301     0.12000
H2415       H  0.90794786  0.80105050  0.72226693     0.12500
H2416       H  0.98552058  0.80062747  0.65943750     0.14500
C2417       C  0.88483730  0.99305223  0.64146456    -0.05600
C2418       C  0.89175148  0.98946363  0.67279491    -0.05500
C2419       C  0.86902211  0.99461124  0.69518284    -0.23700
C2420       C  0.83999985  0.00608454  0.68696764     0.18600
C2421       C  0.83576521  0.01678071  0.65691257     0.15800
C2422       C  0.85858159  0.01086165  0.63437224    -0.18700
C2423       C  0.80769665  0.03082530  0.64945897    -0.20500
C2424       C  0.78330675  0.03210050  0.67088891    -0.13100
C2425       C  0.78582298  0.01818669  0.69987468     0.03600
C2426       C  0.81486812  0.00581532  0.70782515    -0.25200
H2427       H  0.91351614  0.97973248  0.67997375     0.08700
H2428       H  0.87361050  0.98819963  0.71862735     0.12300
H2429       H  0.85376187  0.01628790  0.61071734     0.12200
H2430       H  0.80425515  0.04008710  0.62678451     0.12000
H2431       H  0.76223717  0.04350119  0.66424304     0.12500
H2432       H  0.81773045  0.99454506  0.72960932     0.14500
C2433       C  0.83758483  0.11421162  0.46287683    -0.05600
C2434       C  0.80895538  0.11496429  0.44674187    -0.05500
C2435       C  0.78629309  0.13641865  0.45374314    -0.23700
C2436       C  0.79163429  0.15831917  0.47660260     0.18600
C2437       C  0.81852897  0.15628628  0.49503481     0.15800
C2438       C  0.84113525  0.13406923  0.48830644    -0.18700
C2439       C  0.82366148  0.17827915  0.51812391    -0.20500
C2440       C  0.80343099  0.20290935  0.52158185    -0.13100
C2441       C  0.77778291  0.20613580  0.50202476     0.03600
C2442       C  0.77175572  0.18349511  0.47974976    -0.25200
H2443       H  0.80468638  0.10150653  0.42638313     0.08700
H2444       H  0.76564698  0.13738518  0.43959051     0.12300
H2445       H  0.86303706  0.13468317  0.50059337     0.12200
H2446       H  0.84399284  0.17717692  0.53266237     0.12000
H2447       H  0.80852272  0.22027474  0.53885708     0.12500
H2448       H  0.75245429  0.18618128  0.46412829     0.14500
C2449       C  0.96345035  0.86148987  0.36946993    -0.05600
C2450       C  0.95986731  0.82994830  0.37733084    -0.05500
C2451       C  0.96834940  0.80666649  0.35695623    -0.23700
C2452       C  0.98228684  0.81412428  0.32891931     0.18600
C2453       C  0.99073998  0.84518351  0.32285337     0.15800
C2454       C  0.98143589  0.86869509  0.34317760    -0.18700
C2455       C  0.00692223  0.85221816  0.29578715    -0.20500
C2456       C  0.01256923  0.82910980  0.27410953    -0.13100
C2457       C  0.00088521  0.79864645  0.27820413     0.03600
C2458       C  0.98674312  0.79123339  0.30645882    -0.25200
H2459       H  0.94964669  0.82261498  0.39872973     0.08700
H2460       H  0.96321131  0.78280343  0.36283190     0.12300
H2461       H  0.98595655  0.89266732  0.33729284     0.12200
H2462       H  0.01457704  0.87572275  0.29101052     0.12000
H2463       H  0.02533359  0.83561760  0.25365683     0.12500
H2464       H  0.97723441  0.76830627  0.31044267     0.14500
C2465       C  0.71599419  0.71723800  0.51768514    -0.05600
C2466       C  0.69055861  0.71168508  0.53746603    -0.05500
C2467       C  0.66913048  0.68760435  0.53167627    -0.23700
C2468       C  0.67295741  0.66859840  0.50601367     0.18600
C2469       C  0.69969935  0.67290961  0.48724839     0.15800
C2470       C  0.72082390  0.69738760  0.49292074    -0.18700
C2471       C  0.70369203  0.65422606  0.46166827    -0.20500
C2472       C  0.68005632  0.63366982  0.45283326    -0.13100
C2473       C  0.65192127  0.63035861  0.46992629     0.03600
C2474       C  0.64939439  0.64715441  0.49741644    -0.25200
H2475       H  0.68672754  0.72670677  0.55688592     0.08700
H2476       H  0.64897729  0.68464774  0.54654099     0.12300
H2477       H  0.74008434  0.70196443  0.47726392     0.12200
H2478       H  0.72408993  0.65716764  0.44708865     0.12000
H2479       H  0.68335675  0.62298201  0.43081840     0.12500
H2480       H  0.62780292  0.64583588  0.51042711     0.14500
C2481       C  0.85562015  0.62972915  0.52742489    -0.05600
C2482       C  0.82429702  0.61958150  0.53140370    -0.05500
C2483       C  0.80012613  0.64060117  0.53058103    -0.23700
C2484       C  0.80654896  0.67144266  0.52314413     0.18600
C2485       C  0.83649356  0.67990782  0.51198667     0.15800
C2486       C  0.86078719  0.65868905  0.51339542    -0.18700
C2487       C  0.84214026  0.71010278  0.50190132    -0.20500
C2488       C  0.81878905  0.73196387  0.50425698    -0.13100
C2489       C  0.78976197  0.72467038  0.51822094     0.03600
C2490       C  0.78393324  0.69401031  0.52751781    -0.25200
H2491       H  0.81847307  0.59610244  0.53784716     0.08700
H2492       H  0.77673409  0.63303473  0.53705023     0.12300
H2493       H  0.88441741  0.66629830  0.50780786     0.12200
H2494       H  0.86472470  0.71694932  0.49256556     0.12000
H2495       H  0.82384820  0.75476820  0.49529067     0.12500
H2496       H  0.76237872  0.68765006  0.53906569     0.14500
C2497       C  0.59367873  0.85980226  0.56773555    -0.05600
C2498       C  0.58927479  0.82909483  0.55791922    -0.05500
C2499       C  0.61437142  0.80919042  0.55656525    -0.23700
C2500       C  0.64437078  0.81978651  0.56464416     0.18600
C2501       C  0.64921915  0.85065918  0.57390629     0.15800
C2502       C  0.62394755  0.87053833  0.57522985    -0.18700
C2503       C  0.67923899  0.86092437  0.58213498    -0.20500
C2504       C  0.70471377  0.84168721  0.57812478    -0.13100
C2505       C  0.70067571  0.81187066  0.56546976     0.03600
C2506       C  0.66979804  0.80028098  0.56235627    -0.25200
H2507       H  0.56622762  0.82028888  0.55197289     0.08700
H2508       H  0.61033800  0.78556129  0.54909857     0.12300
H2509       H  0.62787423  0.89397122  0.58314787     0.12200
H2510       H  0.68322144  0.88424306  0.59054515     0.12000
H2511       H  0.72713361  0.85128458  0.58395020     0.12500
H2512       H  0.66536510  0.77647841  0.55595728     0.14500
C2513       C  0.78507074  0.82027298  0.47778332    -0.05600
C2514       C  0.77999881  0.82420206  0.44632902    -0.05500
C2515       C  0.80044206  0.84277219  0.42884107    -0.23700
C2516       C  0.82605277  0.85797625  0.44265351     0.18600
C2517       C  0.83088321  0.85466640  0.47430880     0.15800
C2518       C  0.81102409  0.83533027  0.49122372    -0.18700
C2519       C  0.85631928  0.86972465  0.48848424    -0.20500
C2520       C  0.87789434  0.88666993  0.47108973    -0.13100
C2521       C  0.87436318  0.88844765  0.43940998     0.03600
C2522       C  0.84800247  0.87490133  0.42527304    -0.25200
H2523       H  0.76093565  0.81209814  0.43501850     0.08700
H2524       H  0.79654874  0.84480420  0.40448410     0.12300
H2525       H  0.81654857  0.83190514  0.51490094     0.12200
H2526       H  0.86027188  0.86726393  0.51278768     0.12000
H2527       H  0.89851066  0.89647881  0.48200158     0.12500
H2528       H  0.84581106  0.87583642  0.40060045     0.14500
C2529       C  0.77536513  0.82409857  0.56790154    -0.05600
C2530       C  0.79753273  0.81677570  0.58998468    -0.05500
C2531       C  0.82224038  0.83740240  0.59655519    -0.23700
C2532       C  0.82554765  0.86526715  0.58043077     0.18600
C2533       C  0.80234377  0.87370208  0.55953863     0.15800
C2534       C  0.77726297  0.85325794  0.55377091    -0.18700
C2535       C  0.80577898  0.90138010  0.54312047    -0.20500
C2536       C  0.83211027  0.92056323  0.54743041    -0.13100
C2537       C  0.85561602  0.91205099  0.56771024     0.03600
C2538       C  0.85207128  0.88440002  0.58419013    -0.25200
H2539       H  0.79705910  0.79413882  0.60040529     0.08700
H2540       H  0.83976155  0.83074965  0.61288088     0.12300
H2541       H  0.76122977  0.85862829  0.53573349     0.12200
H2542       H  0.78819014  0.90809831  0.52689365     0.12000
H2543       H  0.83396624  0.94229287  0.53533160     0.12500
H2544       H  0.86947818  0.87811906  0.60057319     0.14500
C2545       C  0.71261630  0.81776199  0.47803998    -0.05600
C2546       C  0.69655772  0.80875955  0.45155481    -0.05500
C2547       C  0.67280529  0.82703179  0.44015048    -0.23700
C2548       C  0.66434332  0.85406426  0.45566046     0.18600
C2549       C  0.68002797  0.86285208  0.48273740     0.15800
C2550       C  0.70410330  0.84473557  0.49353541    -0.18700
C2551       C  0.67166676  0.88982984  0.49834248    -0.20500
C2552       C  0.64949844  0.90920852  0.48591348    -0.13100
C2553       C  0.63485199  0.90130832  0.45832346     0.03600
C2554       C  0.64138173  0.87311234  0.44394903    -0.25200
H2555       H  0.70196395  0.78728319  0.44015345     0.08700
H2556       H  0.66085057  0.81989033  0.41944011     0.12300
H2557       H  0.71538104  0.85104831  0.51467309     0.12200
H2558       H  0.68339097  0.89670268  0.51926892     0.12000
H2559       H  0.64522249  0.93125856  0.49673468     0.12500
H2560       H  0.63070087  0.86741532  0.42218601     0.14500
C2561       C  0.70893750  0.00880523  0.27704491    -0.05600
C2562       C  0.68855321  0.03202884  0.28642443    -0.05500
C2563       C  0.66804651  0.02708890  0.31116147    -0.23700
C2564       C  0.66930200  0.99972864  0.32819734     0.18600
C2565       C  0.69134899  0.97734120  0.31977793     0.15800
C2566       C  0.71026041  0.98166189  0.29400083    -0.18700
C2567       C  0.69457238  0.95096987  0.33739724    -0.20500
C2568       C  0.67492136  0.94572018  0.36214580    -0.13100
C2569       C  0.65112841  0.96646089  0.36991054     0.03600
C2570       C  0.64900118  0.99410227  0.35324850    -0.25200
H2571       H  0.68875613  0.05402461  0.27474252     0.08700
H2572       H  0.65192554  0.04495088  0.31748790     0.12300
H2573       H  0.72728535  0.96448724  0.28789427     0.12200
H2574       H  0.71178709  0.93392795  0.33157732     0.12000
H2575       H  0.67703277  0.92408743  0.37421457     0.12500
H2576       H  0.63104813  0.01042128  0.35868569     0.14500
C2577       C  0.60763062  0.02576464  0.14168018    -0.05600
C2578       C  0.59821275  0.02286364  0.17262754    -0.05500
C2579       C  0.62016418  0.01797998  0.19565280    -0.23700
C2580       C  0.65155124  0.01352818  0.18805325     0.18600
C2581       C  0.65954851  0.00919531  0.15704615     0.15800
C2582       C  0.63737714  0.01448307  0.13403823    -0.18700
C2583       C  0.69016896  0.00174750  0.14952152    -0.20500
C2584       C  0.71314066  0.00152297  0.17206485    -0.13100
C2585       C  0.70682145  0.01060086  0.20259874     0.03600
C2586       C  0.67513655  0.01466129  0.21057734    -0.25200
H2587       H  0.57445402  0.02725739  0.17954902     0.08700
H2588       H  0.61287114  0.01932543  0.21937382     0.12300
H2589       H  0.64461384  0.01362291  0.11026851     0.12200
H2590       H  0.69661759  0.99687207  0.12602621     0.12000
H2591       H  0.73612415  0.99466993  0.16490404     0.12500
H2592       H  0.66847015  0.02026629  0.23355826     0.14500
C2593       C  0.87614247  0.06986892  0.36977240    -0.05600
C2594       C  0.88698450  0.04548055  0.35194579    -0.05500
C2595       C  0.87393058  0.03974550  0.32319491    -0.23700
C2596       C  0.84927231  0.05774240  0.31274211     0.18600
C2597       C  0.83957260  0.08342560  0.32984000     0.15800
C2598       C  0.85390490  0.08996149  0.35771310    -0.18700
C2599       C  0.81404224  0.10056660  0.32001124    -0.20500
C2600       C  0.79650373  0.09056230  0.29479800    -0.13100
C2601       C  0.80519939  0.06419896  0.27860918     0.03600
C2602       C  0.83252695  0.04902618  0.28679227    -0.25200
H2603       H  0.90429233  0.03010359  0.36083605     0.08700
H2604       H  0.88177913  0.02018528  0.30999735     0.12300
H2605       H  0.84596642  0.10929894  0.37128809     0.12200
H2606       H  0.80636375  0.12033760  0.33304995     0.12000
H2607       H  0.77526753  0.10225319  0.28904277     0.12500
H2608       H  0.83972599  0.02918222  0.27402391     0.14500
C2609       C  0.80522051  0.97829699  0.19960585    -0.05600
C2610       C  0.80543563  0.94596234  0.19921057    -0.05500
C2611       C  0.82472770  0.93060261  0.17853410    -0.23700
C2612       C  0.84425769  0.94754141  0.15851590     0.18600
C2613       C  0.84462242  0.98011484  0.15950664     0.15800
C2614       C  0.82456804  0.99509223  0.17945050    -0.18700
C2615       C  0.86437618  0.99724583  0.13991643    -0.20500
C2616       C  0.88217538  0.98216281  0.11795320    -0.13100
C2617       C  0.88022970  0.94999587  0.11553706     0.03600
C2618       C  0.86221463  0.93264700  0.13644475    -0.25200
H2619       H  0.79067922  0.93276218  0.21478917     0.08700
H2620       H  0.82426960  0.90559518  0.17806008     0.12300
H2621       H  0.82423307  0.01990588  0.17931380     0.12200
H2622       H  0.86499592  0.02225903  0.14069965     0.12000
H2623       H  0.89561800  0.99561499  0.10147097     0.12500
H2624       H  0.86056729  0.90773021  0.13405641     0.14500
C2625       C  0.81177117  0.97524108  0.27099174    -0.05600
C2626       C  0.84211873  0.97142300  0.25891626    -0.05500
C2627       C  0.86648155  0.96144657  0.27702702    -0.23700
C2628       C  0.86183907  0.95620946  0.30818349     0.18600
C2629       C  0.83184708  0.95952283  0.32105748     0.15800
C2630       C  0.80684732  0.96820085  0.30226308    -0.18700
C2631       C  0.82774187  0.95490790  0.35263546    -0.20500
C2632       C  0.85299221  0.94654565  0.37094888    -0.13100
C2633       C  0.88283886  0.94263803  0.35805005     0.03600
C2634       C  0.88702127  0.94823071  0.32664678    -0.25200
H2635       H  0.84849792  0.97877021  0.23624517     0.08700
H2636       H  0.88950200  0.95945918  0.26690394     0.12300
H2637       H  0.78392099  0.97068858  0.31238666     0.12200
H2638       H  0.80496801  0.95745552  0.36311873     0.12000
H2639       H  0.84878177  0.94195214  0.39493769     0.12500
H2640       H  0.90993528  0.94594383  0.31637277     0.14500
C2641       C  0.89351566  0.09656229  0.13841167    -0.05600
C2642       C  0.90605802  0.08274082  0.16437721    -0.05500
C2643       C  0.88678955  0.07412111  0.18876751    -0.23700
C2644       C  0.85473359  0.07964323  0.18767230     0.18600
C2645       C  0.84190941  0.09394356  0.16178005     0.15800
C2646       C  0.86143290  0.10216338  0.13711710    -0.18700
C2647       C  0.80968937  0.09888139  0.16073136    -0.20500
C2648       C  0.79015506  0.08765463  0.18410153    -0.13100
C2649       C  0.80261005  0.07200722  0.20909965     0.03600
C2650       C  0.83510009  0.06927898  0.21126063    -0.25200
H2651       H  0.93088979  0.07879850  0.16577042     0.08700
H2652       H  0.89691917  0.06304322  0.20841665     0.12300
H2653       H  0.85183147  0.11334034  0.11729639     0.12200
H2654       H  0.79944374  0.10995038  0.14114384     0.12000
H2655       H  0.76510109  0.08934790  0.18170878     0.12500
H2656       H  0.84499449  0.05561276  0.22910247     0.14500
C2657       C  0.03737203  0.35470797  0.11488901    -0.05600
C2658       C  0.04819221  0.32425782  0.11141835    -0.05500
C2659       C  0.04358562  0.30246560  0.13443921    -0.23700
C2660       C  0.02597480  0.30958841  0.16032102     0.18600
C2661       C  0.00967656  0.33750943  0.16131766     0.15800
C2662       C  0.01516913  0.35988143  0.13836741    -0.18700
C2663       C  0.98997169  0.34326206  0.18634856    -0.20500
C2664       C  0.98723746  0.32191109  0.21031305    -0.13100
C2665       C  0.00486799  0.29486392  0.21024885     0.03600
C2666       C  0.02479407  0.28937289  0.18530196    -0.25200
H2667       H  0.06237342  0.31717001  0.09242252     0.08700
H2668       H  0.05469777  0.28031980  0.13241282     0.12300
H2669       H  0.00545392  0.38262351  0.14100957     0.12200
H2670       H  0.97689493  0.36434026  0.18752958     0.12000
H2671       H  0.97147374  0.32671432  0.22909187     0.12500
H2672       H  0.03939831  0.26929742  0.18522502     0.14500
C2673       C  0.97868037  0.16772649  0.10633053    -0.05600
C2674       C  0.97022012  0.19900052  0.10315188    -0.05500
C2675       C  0.97457705  0.22006404  0.12696934    -0.23700
C2676       C  0.98912007  0.21107596  0.15379998     0.18600
C2677       C  0.00360209  0.18218387  0.15485074     0.15800
C2678       C  0.99879801  0.16074049  0.13078250    -0.18700
C2679       C  0.02012824  0.17434501  0.18117788    -0.20500
C2680       C  0.02073949  0.19420876  0.20658708    -0.13100
C2681       C  0.00398215  0.22182919  0.20667538     0.03600
C2682       C  0.98808956  0.22991470  0.17996048    -0.25200
H2683       H  0.95705009  0.20723731  0.08414745     0.08700
H2684       H  0.96486825  0.24285885  0.12506701     0.12300
H2685       H  0.00643900  0.13724720  0.13352860     0.12200
H2686       H  0.03196667  0.15256713  0.18240932     0.12000
H2687       H  0.03388522  0.18755936  0.22646962     0.12500
H2688       H  0.97420789  0.25047688  0.17963844     0.14500
C2689       C  0.05161723  0.12179691  0.37113587    -0.05600
C2690       C  0.02862208  0.14003849  0.38447843    -0.05500
C2691       C  0.02179476  0.16872627  0.37188663    -0.23700
C2692       C  0.03806096  0.17959509  0.34593441     0.18600
C2693       C  0.06183280  0.16177526  0.33286310     0.15800
C2694       C  0.06850918  0.13311414  0.34558880    -0.18700
C2695       C  0.07785293  0.17250196  0.30672122    -0.20500
C2696       C  0.06915648  0.19993226  0.29266637    -0.13100
C2697       C  0.04498304  0.21735656  0.30501310     0.03600
C2698       C  0.03003751  0.20731147  0.33201622    -0.25200
H2699       H  0.01564570  0.13189024  0.40429692     0.08700
H2700       H  0.00360564  0.18226459  0.38223870     0.12300
H2701       H  0.08704131  0.11964923  0.33564689     0.12200
H2702       H  0.09604540  0.15894575  0.29632639     0.12000
H2703       H  0.07994267  0.20655873  0.27114171     0.12500
H2704       H  0.01074390  0.22009047  0.34110121     0.14500
C2705       C  0.95415060  0.29086440  0.30514605    -0.05600
C2706       C  0.92846272  0.30572998  0.29284126    -0.05500
C2707       C  0.91630677  0.33164524  0.30747409    -0.23700
C2708       C  0.93018594  0.34339132  0.33428194     0.18600
C2709       C  0.95533000  0.32791888  0.34747884     0.15800
C2710       C  0.96696803  0.30168418  0.33286514    -0.18700
C2711       C  0.96927537  0.33979513  0.37423442    -0.20500
C2712       C  0.95903314  0.36743310  0.38723646    -0.13100
C2713       C  0.93492534  0.38364108  0.37350983     0.03600
C2714       C  0.92007307  0.37095039  0.34745659    -0.25200
H2715       H  0.91905157  0.29842231  0.27097422     0.08700
H2716       H  0.89702807  0.34336667  0.29704398     0.12300
H2717       H  0.98704508  0.29058028  0.34220339     0.12200
H2718       H  0.98846864  0.32803797  0.38474056     0.12000
H2719       H  0.97041479  0.37653064  0.40751812     0.12500
H2720       H  0.90068610  0.38269357  0.33721293     0.14500
C2721       C  0.95230186  0.21761751  0.30286883    -0.05600
C2722       C  0.94223317  0.18921542  0.29020069    -0.05500
C2723       C  0.93176024  0.16489584  0.30889982    -0.23700
C2724       C  0.93139936  0.16837745  0.34078909     0.18600
C2725       C  0.94009801  0.19723722  0.35372779     0.15800
C2726       C  0.95000657  0.22168098  0.33472899    -0.18700
C2727       C  0.93980722  0.20090394  0.38559135    -0.20500
C2728       C  0.93047662  0.17640563  0.40443341    -0.13100
C2729       C  0.92166514  0.14764988  0.39187569     0.03600
C2730       C  0.92256936  0.14359766  0.35997614    -0.25200
H2731       H  0.94397296  0.18532950  0.26577032     0.08700
H2732       H  0.92492404  0.14306215  0.29846354     0.12300
H2733       H  0.95858946  0.24273087  0.34522533     0.12200
H2734       H  0.94659359  0.22279351  0.39594182     0.12000
H2735       H  0.92960203  0.18001833  0.42894709     0.12500
H2736       H  0.91536789  0.12162528  0.35008637     0.14500
C2737       C  0.04900216  0.29058769  0.30703115    -0.05600
C2738       C  0.06156830  0.31851628  0.29558358    -0.05500
C2739       C  0.07131250  0.34224194  0.31540771    -0.23700
C2740       C  0.06802610  0.33868566  0.34712038     0.18600
C2741       C  0.05662017  0.31021471  0.35884918     0.15800
C2742       C  0.04794272  0.28621800  0.33879912    -0.18700
C2743       C  0.05272685  0.30659427  0.39045054    -0.20500
C2744       C  0.06042150  0.33080256  0.41031485    -0.13100
C2745       C  0.07220673  0.35908862  0.39903126     0.03600
C2746       C  0.07567251  0.36305815  0.36730708    -0.25200
H2747       H  0.06217696  0.32260647  0.27116178     0.08700
H2748       H  0.08013986  0.36380618  0.30590642     0.12300
H2749       H  0.03741222  0.26551954  0.34817918     0.12200
H2750       H  0.04376350  0.28501732  0.39982002     0.12000
H2751       H  0.05783631  0.32723121  0.43470808     0.12500
H2752       H  0.08534339  0.38459118  0.35846384     0.14500
C2753       C  0.78242257  0.51699333  0.22034512    -0.05600
C2754       C  0.80171998  0.54165807  0.22991132    -0.05500
C2755       C  0.82729079  0.55097057  0.21237430    -0.23700
C2756       C  0.83412818  0.53558367  0.18503563     0.18600
C2757       C  0.81551585  0.51013065  0.17539899     0.15800
C2758       C  0.78930852  0.50108795  0.19308170    -0.18700
C2759       C  0.82288469  0.49522817  0.14774572    -0.20500
C2760       C  0.84771399  0.50630079  0.12938089    -0.13100
C2761       C  0.86590169  0.53218894  0.13855107     0.03600
C2762       C  0.85843000  0.54656824  0.16655062    -0.25200
H2763       H  0.79647303  0.55424796  0.25070397     0.08700
H2764       H  0.84143813  0.57057452  0.21995304     0.12300
H2765       H  0.77428018  0.48203873  0.18571386     0.12200
H2766       H  0.80876075  0.47578412  0.13978042     0.12000
H2767       H  0.85155765  0.49566495  0.10728660     0.12500
H2768       H  0.86984500  0.56801101  0.17330853     0.14500
C2769       C  0.78437479  0.49607300  0.28566699    -0.05600
C2770       C  0.80288492  0.47282884  0.27315717    -0.05500
C2771       C  0.83012918  0.46411000  0.28752230    -0.23700
C2772       C  0.83933546  0.47827304  0.31493881     0.18600
C2773       C  0.82144988  0.50216818  0.32759234     0.15800
C2774       C  0.79379134  0.51093071  0.31288314    -0.18700
C2775       C  0.83088044  0.51567320  0.35538061    -0.20500
C2776       C  0.85626499  0.50397323  0.37148067    -0.13100
C2777       C  0.87326330  0.47894465  0.35986961     0.03600
C2778       C  0.86490260  0.46712139  0.33085136    -0.25200
H2779       H  0.79586739  0.46092925  0.25238108     0.08700
H2780       H  0.84355943  0.44565557  0.27758662     0.12300
H2781       H  0.77956393  0.52890957  0.32258576     0.12200
H2782       H  0.81753266  0.53404174  0.36555518     0.12000
H2783       H  0.86094683  0.51289563  0.39418381     0.12500
H2784       H  0.87593734  0.44690704  0.32166815     0.14500
C2785       C  0.68565141  0.46428392  0.21270863    -0.05600
C2786       C  0.69639600  0.43767538  0.19822542    -0.05500
C2787       C  0.68321509  0.42795523  0.17047811    -0.23700
C2788       C  0.65970147  0.44526799  0.15684685     0.18600
C2789       C  0.64775616  0.47108970  0.17222037     0.15800
C2790       C  0.66075916  0.48017419  0.19994404    -0.18700
C2791       C  0.62421084  0.48848011  0.15886483    -0.20500
C2792       C  0.61391896  0.48154706  0.12939350    -0.13100
C2793       C  0.62701194  0.45709535  0.11329291     0.03600
C2794       C  0.64894368  0.43821172  0.12754520    -0.25200
H2795       H  0.71616762  0.42566460  0.20732912     0.08700
H2796       H  0.69251534  0.40797706  0.15891306     0.12300
H2797       H  0.65237745  0.50056758  0.21096189     0.12200
H2798       H  0.61434163  0.50782242  0.17090837     0.12000
H2799       H  0.59633539  0.49557507  0.11893256     0.12500
H2800       H  0.65819810  0.41850704  0.11542755     0.14500
C2801       C  0.68620887  0.54803260  0.29766606    -0.05600
C2802       C  0.68429296  0.58031028  0.29728068    -0.05500
C2803       C  0.66334739  0.59520873  0.31671047    -0.23700
C2804       C  0.64393681  0.57793632  0.33656011     0.18600
C2805       C  0.64522338  0.54547067  0.33649565     0.15800
C2806       C  0.66669883  0.53093348  0.31754206    -0.18700
C2807       C  0.62597286  0.52809943  0.35636459    -0.20500
C2808       C  0.60762333  0.54288819  0.37814084    -0.13100
C2809       C  0.60829265  0.57511193  0.38004866     0.03600
C2810       C  0.62512850  0.59255543  0.35816553    -0.25200
H2811       H  0.69882720  0.59386442  0.28180057     0.08700
H2812       H  0.66256335  0.62018111  0.31646965     0.12300
H2813       H  0.66774335  0.50623113  0.31808392     0.12200
H2814       H  0.62680284  0.50319548  0.35653645     0.12000
H2815       H  0.59555706  0.52924048  0.39543460     0.12500
H2816       H  0.62678286  0.61745893  0.36048690     0.14500
C2817       C  0.61061287  0.58091168  0.13812151    -0.05600
C2818       C  0.64141272  0.58170013  0.12693475    -0.05500
C2819       C  0.66647936  0.57625794  0.14651472    -0.23700
C2820       C  0.66110992  0.56980284  0.17758014     0.18600
C2821       C  0.63019145  0.56833024  0.18875611     0.15800
C2822       C  0.60531573  0.57332785  0.16900113    -0.18700
C2823       C  0.62441187  0.56092529  0.21934954    -0.20500
C2824       C  0.64886488  0.55290019  0.23830703    -0.13100
C2825       C  0.67998917  0.55331251  0.22751095     0.03600
C2826       C  0.68588334  0.56330113  0.19731761    -0.25200
H2827       H  0.64629858  0.58754512  0.10338067     0.08700
H2828       H  0.69004024  0.57720547  0.13738809     0.12300
H2829       H  0.58168004  0.57147763  0.17787108     0.12200
H2830       H  0.60071588  0.55931479  0.22811146     0.12000
H2831       H  0.64246529  0.54323610  0.26016908     0.12500
H2832       H  0.70957466  0.56375625  0.18848565     0.14500
C2833       C  0.67971030  0.45814164  0.28405960    -0.05600
C2834       C  0.64832722  0.46015557  0.27505724    -0.05500
C2835       C  0.62401201  0.45332625  0.29521032    -0.23700
C2836       C  0.63033697  0.44542198  0.32536833     0.18600
C2837       C  0.66147721  0.44188243  0.33482075     0.15800
C2838       C  0.68601641  0.44731526  0.31376777    -0.18700
C2839       C  0.66738764  0.43480663  0.36555648    -0.20500
C2840       C  0.64260221  0.43103138  0.38645844    -0.13100
C2841       C  0.61154931  0.43431601  0.37693851     0.03600
C2842       C  0.60584827  0.44208460  0.34637997    -0.25200
H2843       H  0.64189279  0.47004373  0.25369094     0.08700
H2844       H  0.60019700  0.45632294  0.28773139     0.12300
H2845       H  0.70999129  0.44602619  0.32135537     0.12200
H2846       H  0.69110812  0.43212613  0.37339869     0.12000
H2847       H  0.64771733  0.42445467  0.40970392     0.12500
H2848       H  0.58208769  0.44526737  0.33879997     0.14500
C2849       C  0.36266538  0.36550886  0.51979170    -0.05600
C2850       C  0.36466055  0.36004095  0.48816764    -0.05500
C2851       C  0.34319775  0.33956536  0.47397702    -0.23700
C2852       C  0.31955091  0.32452501  0.49125577     0.18600
C2853       C  0.31699406  0.33089756  0.52278560     0.15800
C2854       C  0.33861201  0.35055558  0.53663202    -0.18700
C2855       C  0.29367916  0.31650503  0.54059755    -0.20500
C2856       C  0.27327097  0.29510858  0.52742147    -0.13100
C2857       C  0.27597943  0.28784055  0.49637171     0.03600
C2858       C  0.29904893  0.30247684  0.47815869    -0.25200
H2859       H  0.38347452  0.37027012  0.47477054     0.08700
H2860       H  0.34557098  0.33487856  0.44973694     0.12300
H2861       H  0.33754574  0.35299678  0.56130324     0.12200
H2862       H  0.29161657  0.32136946  0.56484899     0.12000
H2863       H  0.25579730  0.28356741  0.54158911     0.12500
H2864       H  0.30112928  0.29643112  0.45416765     0.14500
C2865       C  0.20430853  0.28961644  0.49316322    -0.05600
C2866       C  0.17491411  0.28401960  0.50696082    -0.05500
C2867       C  0.15377581  0.30780360  0.51069023    -0.23700
C2868       C  0.16204211  0.33778349  0.50150900     0.18600
C2869       C  0.19294040  0.34442494  0.49180101     0.15800
C2870       C  0.21364036  0.32032180  0.48701105    -0.18700
C2871       C  0.20163525  0.37480180  0.48441058    -0.20500
C2872       C  0.17864044  0.39669895  0.48063646    -0.13100
C2873       C  0.14683687  0.38763843  0.48224097     0.03600
C2874       C  0.13921817  0.36020315  0.49807924    -0.25200
H2875       H  0.16759562  0.26100780  0.51384732     0.08700
H2876       H  0.13046128  0.30240422  0.51911953     0.12300
H2877       H  0.23587609  0.32547422  0.47616622     0.12200
H2878       H  0.22570328  0.38095479  0.47904834     0.12000
H2879       H  0.18581823  0.41946547  0.47297424     0.12500
H2880       H  0.11489479  0.35389243  0.50205144     0.14500
C2881       C  0.27745755  0.20018096  0.42975505    -0.05600
C2882       C  0.29663572  0.21491033  0.40797979    -0.05500
C2883       C  0.32601829  0.20324187  0.40100066    -0.23700
C2884       C  0.33695100  0.17755293  0.41686854     0.18600
C2885       C  0.31696116  0.16157373  0.43732065     0.15800
C2886       C  0.28690865  0.17224590  0.44248837    -0.18700
C2887       C  0.32809143  0.13664353  0.45408681    -0.20500
C2888       C  0.35928832  0.12840013  0.45167467    -0.13100
C2889       C  0.37960931  0.14433513  0.43173025     0.03600
C2890       C  0.36789195  0.16844440  0.41371339    -0.25200
H2891       H  0.29013366  0.23691733  0.39856223     0.08700
H2892       H  0.34109817  0.21572930  0.38512788     0.12300
H2893       H  0.27266035  0.16104581  0.45965814     0.12200
H2894       H  0.31284595  0.12393263  0.46954234     0.12000
H2895       H  0.36748072  0.10950696  0.46537381     0.12500
H2896       H  0.38266651  0.18022916  0.39710620     0.14500
C2897       C  0.20047728  0.19029335  0.52062096    -0.05600
C2898       C  0.20658070  0.18314840  0.55128174    -0.05500
C2899       C  0.18551927  0.16459882  0.56798550    -0.23700
C2900       C  0.15802421  0.15319653  0.55424950     0.18600
C2901       C  0.15181817  0.16033170  0.52348079     0.15800
C2902       C  0.17267849  0.17912975  0.50729512    -0.18700
C2903       C  0.12422746  0.14953536  0.50955985    -0.20500
C2904       C  0.10203106  0.13307213  0.52657496    -0.13100
C2905       C  0.10748681  0.12703866  0.55740841     0.03600
C2906       C  0.13573525  0.13631252  0.57107254    -0.25200
H2907       H  0.22727761  0.19231325  0.56248378     0.08700
H2908       H  0.19043849  0.15962551  0.59171171     0.12300
H2909       H  0.16668428  0.18510727  0.48422361     0.12200
H2910       H  0.11928564  0.15489716  0.48591870     0.12000
H2911       H  0.07995029  0.12645483  0.51620235     0.12500
H2912       H  0.13929612  0.13235867  0.59524535     0.14500
C2913       C  0.27422402  0.18851768  0.51992522    -0.05600
C2914       C  0.30297098  0.19980839  0.53100566    -0.05500
C2915       C  0.32621009  0.17965665  0.53940621    -0.23700
C2916       C  0.32094049  0.14772515  0.53739814     0.18600
C2917       C  0.29144165  0.13587127  0.52837546     0.15800
C2918       C  0.26815275  0.15637954  0.51961333    -0.18700
C2919       C  0.28635352  0.10374306  0.52715910    -0.20500
C2920       C  0.31000100  0.08373085  0.53579140    -0.13100
C2921       C  0.33935153  0.09546292  0.54520030     0.03600
C2922       C  0.34478788  0.12758483  0.54460449    -0.25200
H2923       H  0.30804688  0.22441371  0.53170011     0.08700
H2924       H  0.34855922  0.18907411  0.54688363     0.12300
H2925       H  0.24633085  0.14726502  0.51055010     0.12200
H2926       H  0.26397335  0.09413019  0.52003425     0.12000
H2927       H  0.30512493  0.05910118  0.53580478     0.12500
H2928       H  0.36713938  0.13739841  0.55123531     0.14500
C2929       C  0.12521849  0.10782675  0.42935418    -0.05600
C2930       C  0.14903306  0.09884062  0.44902684    -0.05500
C2931       C  0.17558111  0.11756541  0.45298025    -0.23700
C2932       C  0.17870803  0.14557176  0.43722454     0.18600
C2933       C  0.15445107  0.15536920  0.41808416     0.15800
C2934       C  0.12779644  0.13631140  0.41417796    -0.18700
C2935       C  0.15715563  0.18426414  0.40373614    -0.20500
C2936       C  0.18241220  0.20424516  0.41044943    -0.13100
C2937       C  0.20594831  0.19498576  0.43034282     0.03600
C2938       C  0.20474581  0.16492550  0.44217933    -0.25200
H2939       H  0.14767093  0.07657399  0.46018949     0.08700
H2940       H  0.19375758  0.11006630  0.46820219     0.12300
H2941       H  0.10980880  0.14294562  0.39837188     0.12200
H2942       H  0.13882447  0.19214783  0.38890858     0.12000
H2943       H  0.18250504  0.22763402  0.40180896     0.12500
H2944       H  0.22159107  0.15821598  0.45900296     0.14500
C2945       C  0.47469309  0.15959753  0.37223196    -0.05600
C2946       C  0.50695643  0.15792546  0.36648347    -0.05500
C2947       C  0.52126559  0.17731962  0.34465927    -0.23700
C2948       C  0.50358183  0.19866799  0.32846450     0.18600
C2949       C  0.47139502  0.20099589  0.33487143     0.15800
C2950       C  0.45736146  0.18149771  0.35629932    -0.18700
C2951       C  0.45331378  0.22213230  0.31909477    -0.20500
C2952       C  0.46695246  0.24072741  0.29671756    -0.13100
C2953       C  0.49876307  0.23837103  0.28981865     0.03600
C2954       C  0.51710679  0.21723215  0.30549447    -0.25200
H2955       H  0.52099669  0.14102512  0.37770841     0.08700
H2956       H  0.54599013  0.17520059  0.34000981     0.12300
H2957       H  0.43232349  0.18255022  0.35981983     0.12200
H2958       H  0.42855389  0.22396895  0.32377068     0.12000
H2959       H  0.45257238  0.25654726  0.28422551     0.12500
H2960       H  0.54160281  0.21522619  0.29965581     0.14500
C2961       C  0.50590895  0.31010667  0.28904566    -0.05600
C2962       C  0.49783792  0.34120194  0.28411454    -0.05500
C2963       C  0.49663546  0.36267387  0.30815981    -0.23700
C2964       C  0.50262170  0.35375939  0.33823799     0.18600
C2965       C  0.50808489  0.32247619  0.34424095     0.15800
C2966       C  0.51075925  0.30126275  0.31984425    -0.18700
C2967       C  0.51225568  0.31324098  0.37460064    -0.20500
C2968       C  0.51596461  0.33533658  0.39784679    -0.13100
C2969       C  0.51758008  0.36713725  0.39088966     0.03600
C2970       C  0.50611183  0.37586696  0.36190216    -0.25200
H2971       H  0.49304294  0.34989664  0.26169482     0.08700
H2972       H  0.49190463  0.38655139  0.30301177     0.12300
H2973       H  0.51840430  0.27847340  0.32534921     0.12200
H2974       H  0.51445819  0.28903914  0.38013341     0.12000
H2975       H  0.52056406  0.32723401  0.42068116     0.12500
H2976       H  0.50481073  0.40016961  0.35637174     0.14500
C2977       C  0.55219438  0.23384541  0.18837680    -0.05600
C2978       C  0.53760100  0.23526909  0.15957732    -0.05500
C2979       C  0.53864053  0.21023684  0.13905267    -0.23700
C2980       C  0.55475935  0.18352248  0.14673154     0.18600
C2981       C  0.57218384  0.18363211  0.17416113     0.15800
C2982       C  0.57056026  0.20847978  0.19483174    -0.18700
C2983       C  0.58989870  0.15821098  0.18134227    -0.20500
C2984       C  0.58872320  0.13204871  0.16293086    -0.13100
C2985       C  0.56820059  0.12943330  0.13765116     0.03600
C2986       C  0.55260063  0.15622746  0.12860973    -0.25200
H2987       H  0.52278772  0.25439042  0.15423980     0.08700
H2988       H  0.52538498  0.21109803  0.11807088     0.12300
H2989       H  0.58166331  0.20705603  0.21699150     0.12200
H2990       H  0.60441150  0.15831920  0.20156603     0.12000
H2991       H  0.60374691  0.11344425  0.16931072     0.12500
H2992       H  0.53780578  0.15543714  0.10860144     0.14500
C2993       C  0.44639803  0.39937216  0.13605098    -0.05600
C2994       C  0.45427190  0.40595862  0.16667598    -0.05500
C2995       C  0.45565409  0.38266490  0.18825704    -0.23700
C2996       C  0.45243618  0.35184198  0.17931250     0.18600
C2997       C  0.44871928  0.34423548  0.14810827     0.15800
C2998       C  0.44439825  0.36812318  0.12662608    -0.18700
C2999       C  0.45066636  0.31306766  0.13923071    -0.20500
C3000       C  0.45894249  0.29056990  0.16072252    -0.13100
C3001       C  0.46249151  0.29844915  0.19187852     0.03600
C3002       C  0.45587614  0.32862828  0.20100026    -0.25200
H3003       H  0.45792888  0.42948766  0.17449374     0.08700
H3004       H  0.46023799  0.38878258  0.21189659     0.12300
H3005       H  0.43911679  0.36239274  0.10306070     0.12200
H3006       H  0.44853955  0.30658801  0.11537278     0.12000
H3007       H  0.46482353  0.26783737  0.15253337     0.12500
H3008       H  0.45792082  0.33492374  0.22488303     0.14500
C3009       C  0.58129773  0.37785660  0.10286522    -0.05600
C3010       C  0.54894684  0.37789398  0.10710443    -0.05500
C3011       C  0.53499460  0.35924546  0.12918758    -0.23700
C3012       C  0.55322723  0.34045480  0.14749855     0.18600
C3013       C  0.58589305  0.34001482  0.14357817     0.15800
C3014       C  0.59987401  0.35880332  0.12102713    -0.18700
C3015       C  0.60364562  0.32091784  0.16240338    -0.20500
C3016       C  0.58889020  0.30248407  0.18482393    -0.13100
C3017       C  0.55637132  0.30328616  0.18877726     0.03600
C3018       C  0.53899570  0.32227382  0.16982543    -0.25200
H3019       H  0.53439564  0.39224622  0.09313708     0.08700
H3020       H  0.50995071  0.35967863  0.13206892     0.12300
H3021       H  0.62500994  0.35910152  0.11800098     0.12200
H3022       H  0.62878516  0.32028773  0.15981832     0.12000
H3023       H  0.60276862  0.28796800  0.19925907     0.12500
H3024       H  0.51410223  0.32304239  0.17216263     0.14500
C3025       C  0.43012147  0.13551893  0.13125047    -0.05600
C3026       C  0.46083533  0.12947049  0.13983723    -0.05500
C3027       C  0.47634696  0.14890968  0.16068345    -0.23700
C3028       C  0.46171372  0.17520737  0.17237377     0.18600
C3029       C  0.43031777  0.18048134  0.16541535     0.15800
C3030       C  0.41441312  0.15997138  0.14586969    -0.18700
C3031       C  0.41580123  0.20688041  0.17705458    -0.20500
C3032       C  0.43293484  0.22884559  0.19402855    -0.13100
C3033       C  0.46478977  0.22470811  0.19964635     0.03600
C3034       C  0.47841957  0.19694051  0.18981802    -0.25200
H3035       H  0.47336307  0.11066274  0.12949103     0.08700
H3036       H  0.50025351  0.14416263  0.16660619     0.12300
H3037       H  0.39007130  0.16399758  0.14114295     0.12200
H3038       H  0.39148592  0.21102233  0.17220912     0.12000
H3039       H  0.42140046  0.24922398  0.20233148     0.12500
H3040       H  0.50263915  0.19251009  0.19411895     0.14500
C3041       C  0.36986500  0.52789217  0.36780610    -0.05600
C3042       C  0.34555678  0.50814206  0.37831254    -0.05500
C3043       C  0.32234701  0.49742799  0.35825319    -0.23700
C3044       C  0.32275612  0.50712449  0.32769424     0.18600
C3045       C  0.34904595  0.52365554  0.31634118     0.15800
C3046       C  0.37347689  0.53169930  0.33596197    -0.18700
C3047       C  0.34909325  0.53503019  0.28643806    -0.20500
C3048       C  0.32223598  0.53241371  0.26883631    -0.13100
C3049       C  0.29559548  0.51654564  0.27997626     0.03600
C3050       C  0.29653974  0.50271148  0.30900615    -0.25200
H3051       H  0.34268682  0.50380266  0.40254770     0.08700
H3052       H  0.30264082  0.48418580  0.36728402     0.12300
H3053       H  0.39320424  0.54389034  0.32613279     0.12200
H3054       H  0.36897729  0.54813729  0.27755387     0.12000
H3055       H  0.32195507  0.54413494  0.24709100     0.12500
H3056       H  0.27641221  0.48987283  0.31769532     0.14500
C3057       C  0.29198653  0.50298774  0.21111700    -0.05600
C3058       C  0.29918932  0.47169186  0.21163832    -0.05500
C3059       C  0.32062416  0.45973125  0.19104010    -0.23700
C3060       C  0.33599695  0.47899696  0.16985599     0.18600
C3061       C  0.33028339  0.51084195  0.16937754     0.15800
C3062       C  0.30742158  0.52271218  0.18969267    -0.18700
C3063       C  0.34745437  0.52960529  0.14843831    -0.20500
C3064       C  0.37010379  0.51676128  0.12854522    -0.13100
C3065       C  0.37516011  0.48479655  0.12869629     0.03600
C3066       C  0.35708140  0.46642537  0.14918816    -0.25200
H3067       H  0.28729200  0.45619618  0.22747488     0.08700
H3068       H  0.32513198  0.43523088  0.19162872     0.12300
H3069       H  0.30166440  0.54690749  0.18892271     0.12200
H3070       H  0.34359576  0.55420132  0.14766994     0.12000
H3071       H  0.38320944  0.53161739  0.11306700     0.12500
H3072       H  0.36005890  0.44162133  0.14947503     0.14500
C3073       C  0.11957985  0.57097326  0.12180632    -0.05600
C3074       C  0.11976738  0.53899550  0.12552396    -0.05500
C3075       C  0.13735764  0.52638980  0.14873536    -0.23700
C3076       C  0.15456241  0.54575647  0.16846199     0.18600
C3077       C  0.15223691  0.57808295  0.16662306     0.15800
C3078       C  0.13466459  0.59058892  0.14304749    -0.18700
C3079       C  0.16928427  0.59709361  0.18701547    -0.20500
C3080       C  0.18933845  0.58398319  0.20834342    -0.13100
C3081       C  0.19291714  0.55190222  0.20885800     0.03600
C3082       C  0.17530146  0.53318133  0.18889489    -0.25200
H3083       H  0.10865936  0.52381402  0.10887172     0.08700
H3084       H  0.13901907  0.50157511  0.15008431     0.12300
H3085       H  0.13483803  0.61536396  0.13961204     0.12200
H3086       H  0.16753990  0.62197290  0.18606764     0.12000
H3087       H  0.20248850  0.59875204  0.22387857     0.12500
H3088       H  0.17790910  0.50861088  0.18881808     0.14500
C3089       C  0.12987173  0.43868045  0.38061950    -0.05600
C3090       C  0.11745905  0.46508038  0.36749613    -0.05500
C3091       C  0.13097345  0.47773675  0.34104833    -0.23700
C3092       C  0.15707516  0.46409625  0.32738750     0.18600
C3093       C  0.16901617  0.43679444  0.33964655     0.15800
C3094       C  0.15516510  0.42411536  0.36607615    -0.18700
C3095       C  0.19524729  0.42339214  0.32583749    -0.20500
C3096       C  0.21047879  0.43795862  0.30110791    -0.13100
C3097       C  0.19935676  0.46574519  0.28964426     0.03600
C3098       C  0.17210156  0.47796998  0.30232976    -0.25200
H3099       H  0.09808342  0.47653384  0.37835033     0.08700
H3100       H  0.12153592  0.49865384  0.33174592     0.12300
H3101       H  0.16454771  0.40334589  0.37583167     0.12200
H3102       H  0.20463623  0.40231620  0.33486633     0.12000
H3103       H  0.23155479  0.42823521  0.29173189     0.12500
H3104       H  0.16286029  0.49870804  0.29317909     0.14500
C3105       C  0.11102342  0.57774336  0.36764258    -0.05600
C3106       C  0.14142698  0.58057559  0.37964352    -0.05500
C3107       C  0.16775765  0.57534947  0.36108940    -0.23700
C3108       C  0.16431252  0.56765808  0.32998107     0.18600
C3109       C  0.13394105  0.56441320  0.31797068     0.15800
C3110       C  0.10776447  0.56858692  0.33685770    -0.18700
C3111       C  0.12998738  0.55680909  0.28717047    -0.20500
C3112       C  0.15570759  0.55109777  0.26855207    -0.13100
C3113       C  0.18652587  0.55341990  0.27985612     0.03600
C3114       C  0.19044631  0.56246478  0.31080451    -0.25200
H3115       H  0.14505168  0.58804618  0.40301427     0.08700
H3116       H  0.19081911  0.57794254  0.37093767     0.12300
H3117       H  0.08468456  0.56539946  0.32719246     0.12200
H3118       H  0.10678102  0.55385877  0.27770105     0.12000
H3119       H  0.15058521  0.54172032  0.24628734     0.12500
H3120       H  0.21371673  0.56421796  0.32031247     0.14500
C3121       C  0.10999549  0.43811123  0.14533588    -0.05600
C3122       C  0.09641876  0.45033390  0.17190143    -0.05500
C3123       C  0.11473104  0.45737633  0.19739310    -0.23700
C3124       C  0.14682015  0.45179616  0.19679431     0.18600
C3125       C  0.16060631  0.43941496  0.17008845     0.15800
C3126       C  0.14212813  0.43293275  0.14444157    -0.18700
C3127       C  0.19277757  0.43443339  0.16924291    -0.20500
C3128       C  0.21152582  0.44433247  0.19350853    -0.13100
C3129       C  0.19829563  0.45868505  0.21914506     0.03600
C3130       C  0.16570073  0.46047220  0.22158465    -0.25200
H3131       H  0.07145550  0.45364376  0.17310612     0.08700
H3132       H  0.10381842  0.46707766  0.21755608     0.12300
H3133       H  0.15255684  0.42291373  0.12423567     0.12200
H3134       H  0.20366352  0.42470697  0.14907288     0.12000
H3135       H  0.23665780  0.44328609  0.19111405     0.12500
H3136       H  0.15542447  0.47262775  0.24069045     0.14500
C3137       C  0.77800519  0.80008138  0.00710728    -0.05600
C3138       C  0.77330778  0.81203814  0.03651968    -0.05500
C3139       C  0.79052640  0.83761632  0.04664906    -0.23700
C3140       C  0.81298821  0.85178975  0.02759728     0.18600
C3141       C  0.81784704  0.84069189  0.99769541     0.15800
C3142       C  0.80034935  0.81446842  0.98754507    -0.18700
C3143       C  0.84103418  0.85530030  0.97939511    -0.20500
C3144       C  0.86013356  0.87952010  0.99129916    -0.13100
C3145       C  0.85597726  0.89017354  0.02150066     0.03600
C3146       C  0.83188507  0.87572732  0.03908851    -0.25200
H3147       H  0.75655380  0.80112328  0.05192327     0.08700
H3148       H  0.78670941  0.84594561  0.06974205     0.12300
H3149       H  0.80421447  0.80511935  0.96485330     0.12200
H3150       H  0.84534402  0.84709140  0.95636328     0.12000
H3151       H  0.87924249  0.88867170  0.97753407     0.12500
H3152       H  0.82924448  0.88090906  0.06315051     0.14500
C3153       C  0.64166632  0.88653235  0.97637868    -0.05600
C3154       C  0.67289631  0.89732070  0.97928356    -0.05500
C3155       C  0.69646967  0.87691599  0.98623114    -0.23700
C3156       C  0.68883025  0.84633804  0.99364467     0.18600
C3157       C  0.65730786  0.83775319  0.99868189     0.15800
C3158       C  0.63366612  0.85793649  0.98999720    -0.18700
C3159       C  0.65017629  0.80838185  0.01017295    -0.20500
C3160       C  0.67381881  0.78701631  0.01399675    -0.13100
C3161       C  0.70476347  0.79351529  0.00393076     0.03600
C3162       C  0.71195369  0.82399758  0.99462193    -0.25200
H3163       H  0.67972615  0.92068710  0.97317712     0.08700
H3164       H  0.72063924  0.88469317  0.98453201     0.12300
H3165       H  0.60948288  0.85003672  0.99062444     0.12200
H3166       H  0.62628233  0.80172106  0.01572214     0.12000
H3167       H  0.66706837  0.76521208  0.02413859     0.12500
H3168       H  0.73485971  0.83044574  0.98621080     0.14500
C3169       C  0.71887269  0.69361449  0.04355352    -0.05600
C3170       C  0.72029421  0.66254303  0.03423205    -0.05500
C3171       C  0.69542858  0.64185501  0.04075306    -0.23700
C3172       C  0.66908985  0.65209766  0.05679874     0.18600
C3173       C  0.66979739  0.68234241  0.06916196     0.15800
C3174       C  0.69465253  0.70273483  0.06266545    -0.18700
C3175       C  0.64457073  0.69275228  0.08598285    -0.20500
C3176       C  0.61784141  0.67445189  0.08878374    -0.13100
C3177       C  0.61493879  0.64522151  0.07426570     0.03600
C3178       C  0.64149117  0.63363412  0.05928736    -0.25200
H3179       H  0.73882126  0.65522756  0.01911596     0.08700
H3180       H  0.69580907  0.61868575  0.03138303     0.12300
H3181       H  0.69357315  0.72671390  0.06978660     0.12200
H3182       H  0.64510882  0.71554205  0.09633563     0.12000
H3183       H  0.59942208  0.68403437  0.10236696     0.12500
H3184       H  0.64037313  0.61099434  0.04870322     0.14500
C3185       C  0.78336566  0.70424481  0.94929884    -0.05600
C3186       C  0.80395693  0.71986909  0.92944285    -0.05500
C3187       C  0.83171422  0.70636013  0.92017865    -0.23700
C3188       C  0.83980491  0.67746070  0.93164914     0.18600
C3189       C  0.81833805  0.66055520  0.94998614     0.15800
C3190       C  0.78968776  0.67377107  0.95803202    -0.18700
C3191       C  0.82703534  0.63194454  0.96189890    -0.20500
C3192       C  0.85733659  0.62111003  0.95714868    -0.13100
C3193       C  0.87941842  0.63856101  0.94024551     0.03600
C3194       C  0.86972937  0.66614905  0.92645388    -0.25200
H3195       H  0.79968601  0.74352517  0.92305127     0.08700
H3196       H  0.84790008  0.71951871  0.90592776     0.12300
H3197       H  0.77418654  0.66197609  0.97403298     0.12200
H3198       H  0.81087814  0.61858916  0.97599180     0.12000
H3199       H  0.86371856  0.59950208  0.96744791     0.12500
H3200       H  0.88551889  0.67927689  0.91180087     0.14500
C3201       C  0.71070742  0.69424591  0.95480769    -0.05600
C3202       C  0.71645610  0.68565561  0.92426777    -0.05500
C3203       C  0.69808270  0.66249943  0.91006059    -0.23700
C3204       C  0.67337116  0.64774487  0.92601014     0.18600
C3205       C  0.66687400  0.65670536  0.95627918     0.15800
C3206       C  0.68543531  0.67947925  0.97026073    -0.18700
C3207       C  0.64180606  0.64280551  0.97232267    -0.20500
C3208       C  0.62340468  0.61977971  0.95856462    -0.13100
C3209       C  0.62999352  0.61006561  0.92872361     0.03600
C3210       C  0.65487896  0.62436073  0.91235527    -0.25200
H3211       H  0.73491257  0.69693979  0.91121726     0.08700
H3212       H  0.70315196  0.65618923  0.88658786     0.12300
H3213       H  0.67987575  0.68484873  0.99364947     0.12200
H3214       H  0.63631970  0.64987790  0.99547385     0.12000
H3215       H  0.60415991  0.60936045  0.97130554     0.12500
H3216       H  0.65946881  0.61768809  0.88887297     0.14500
C3217       C  0.79027736  0.70363037  0.04124717    -0.05600
C3218       C  0.78378880  0.69493085  0.07159481    -0.05500
C3219       C  0.80174034  0.67289294  0.08601733    -0.23700
C3220       C  0.82671104  0.65952965  0.07042192     0.18600
C3221       C  0.83534703  0.67027997  0.04113226     0.15800
C3222       C  0.81741907  0.69265104  0.02698024    -0.18700
C3223       C  0.86088308  0.65740970  0.02590504    -0.20500
C3224       C  0.87606441  0.63227999  0.03847452    -0.13100
C3225       C  0.86639347  0.62030036  0.06681588     0.03600
C3226       C  0.84257991  0.63499673  0.08325722    -0.25200
H3227       H  0.76414205  0.70434280  0.08384672     0.08700
H3228       H  0.79537483  0.66548405  0.10889683     0.12300
H3229       H  0.82371319  0.69979047  0.00410524     0.12200
H3230       H  0.86841664  0.66613098  0.00383865     0.12000
H3231       H  0.89471076  0.62173215  0.02563325     0.12500
H3232       H  0.83594429  0.62704979  0.10588772     0.14500
C3233       C  0.36702909  0.89671032  0.47820515    -0.05600
C3234       C  0.37642123  0.87888165  0.50324323    -0.05500
C3235       C  0.35725310  0.85451726  0.51435042    -0.23700
C3236       C  0.32874939  0.84684847  0.49999065     0.18600
C3237       C  0.31839466  0.86549751  0.47598229     0.15800
C3238       C  0.33712088  0.89014633  0.46574256    -0.18700
C3239       C  0.29067093  0.85774176  0.46051145    -0.20500
C3240       C  0.27388504  0.83087714  0.46784780    -0.13100
C3241       C  0.28411274  0.81165659  0.49119806     0.03600
C3242       C  0.31137731  0.81988106  0.50759225    -0.25200
H3243       H  0.39959958  0.88213417  0.51261238     0.08700
H3244       H  0.36569443  0.84041022  0.53280307     0.12300
H3245       H  0.32952105  0.90155092  0.44528929     0.12200
H3246       H  0.28264288  0.87180640  0.44182618     0.12000
H3247       H  0.25331063  0.82459451  0.45472929     0.12500
H3248       H  0.31954885  0.80473231  0.52535727     0.14500
C3249       C  0.14904936  0.89497800  0.53401555    -0.05600
C3250       C  0.18073825  0.90440863  0.53644462    -0.05500
C3251       C  0.20451455  0.88378260  0.53005469    -0.23700
C3252       C  0.19719902  0.85393935  0.51962803     0.18600
C3253       C  0.16606246  0.84631504  0.51174062     0.15800
C3254       C  0.14223665  0.86719130  0.51823888    -0.18700
C3255       C  0.15903672  0.81714045  0.49945424    -0.20500
C3256       C  0.18239311  0.79537315  0.49616253    -0.13100
C3257       C  0.21315576  0.80173377  0.50613192     0.03600
C3258       C  0.22026342  0.83142267  0.51779390    -0.25200
H3259       H  0.18765857  0.92692444  0.54491786     0.08700
H3260       H  0.22852233  0.89076885  0.53448392     0.12300
H3261       H  0.11808612  0.86014983  0.51458802     0.12200
H3262       H  0.13539384  0.81098906  0.49271094     0.12000
H3263       H  0.17607549  0.77344343  0.48574929     0.12500
H3264       H  0.24337552  0.83694523  0.52632212     0.14500
C3265       C  0.21103999  0.71047636  0.45697869    -0.05600
C3266       C  0.20149339  0.71750143  0.42728111    -0.05500
C3267       C  0.17554133  0.70210144  0.41451082    -0.23700
C3268       C  0.15901162  0.67939871  0.43131528     0.18600
C3269       C  0.16942038  0.67129394  0.46068178     0.15800
C3270       C  0.19525609  0.68691094  0.47321173    -0.18700
C3271       C  0.15334448  0.64825987  0.47737493    -0.20500
C3272       C  0.12657857  0.63384029  0.46539007    -0.13100
C3273       C  0.11534494  0.64262418  0.43680495     0.03600
C3274       C  0.13195497  0.66505284  0.41959589    -0.25200
H3275       H  0.21323687  0.73580493  0.41457734     0.08700
H3276       H  0.16793519  0.70846526  0.39185903     0.12300
H3277       H  0.20258234  0.68118200  0.49594315     0.12200
H3278       H  0.16125993  0.64166547  0.49980621     0.12000
H3279       H  0.11421912  0.61638458  0.47871375     0.12500
H3280       H  0.12376632  0.67130822  0.39709005     0.14500
C3281       C  0.31034515  0.71151425  0.52543834    -0.05600
C3282       C  0.33432390  0.70743265  0.50345149    -0.05500
C3283       C  0.36015918  0.68974574  0.50898183    -0.23700
C3284       C  0.36346013  0.67529479  0.53692343     0.18600
C3285       C  0.34053522  0.67923318  0.56000503     0.15800
C3286       C  0.31420669  0.69762266  0.55430123    -0.18700
C3287       C  0.34470633  0.66479685  0.58829777    -0.20500
C3288       C  0.37121207  0.64712689  0.59341825    -0.13100
C3289       C  0.39352427  0.64281224  0.57013177     0.03600
C3290       C  0.38959640  0.65712149  0.54201070    -0.25200
H3291       H  0.33359452  0.71700810  0.48097817     0.08700
H3292       H  0.37750624  0.68714895  0.49105359     0.12300
H3293       H  0.29686230  0.70085538  0.57206529     0.12200
H3294       H  0.32777087  0.66748660  0.60654434     0.12000
H3295       H  0.37455555  0.63716162  0.61576825     0.12500
H3296       H  0.40710727  0.65438865  0.52424841     0.14500
C3297       C  0.14372009  0.62918889  0.56980889    -0.05600
C3298       C  0.13359751  0.65959762  0.57274705    -0.05500
C3299       C  0.15484326  0.68446863  0.56949196    -0.23700
C3300       C  0.18630162  0.67932664  0.56210008     0.18600
C3301       C  0.19619664  0.64894653  0.55701856     0.15800
C3302       C  0.17502221  0.62411286  0.56130281    -0.18700
C3303       C  0.22685015  0.64399896  0.54693813    -0.20500
C3304       C  0.24670247  0.66904914  0.53957265    -0.13100
C3305       C  0.23707651  0.69959615  0.54414229     0.03600
C3306       C  0.20753354  0.70415347  0.55781757    -0.25200
H3307       H  0.10965745  0.66412442  0.57899199     0.08700
H3308       H  0.14663585  0.70774209  0.57260416     0.12300
H3309       H  0.18293480  0.60071265  0.55821208     0.12200
H3310       H  0.23467089  0.62079162  0.54251879     0.12000
H3311       H  0.26830948  0.66424723  0.52785408     0.12500
H3312       H  0.19964025  0.72745913  0.56164694     0.14500
C3313       C  0.28172819  0.70932514  0.44669149    -0.05600
C3314       C  0.30614535  0.71756680  0.42658333    -0.05500
C3315       C  0.32902329  0.69621373  0.41881199    -0.23700
C3316       C  0.32804735  0.66641826  0.43144137     0.18600
C3317       C  0.30248531  0.65735765  0.45012171     0.15800
C3318       C  0.27928715  0.67863078  0.45713478    -0.18700
C3319       C  0.30128797  0.62760967  0.46267971    -0.20500
C3320       C  0.32489647  0.60676241  0.45625386    -0.13100
C3321       C  0.35059917  0.61553745  0.43799538     0.03600
C3322       C  0.35228110  0.64564276  0.42606694    -0.25200
H3323       H  0.30884634  0.74119443  0.41884837     0.08700
H3324       H  0.34830079  0.70348911  0.40419486     0.12300
H3325       H  0.26101990  0.67210266  0.47318631     0.12200
H3326       H  0.28186671  0.62032305  0.47711861     0.12000
H3327       H  0.32280718  0.58344405  0.46498367     0.12500
H3328       H  0.37187928  0.65262647  0.41192910     0.14500
loop_ 
_geom_bond_atom_site_label_1 
_geom_bond_atom_site_label_2 
_geom_bond_distance 
_geom_bond_site_symmetry_2 
_ccdc_geom_bond_type 
C1            H2   1.106       .  S
C1            C7   1.533       .  S
C1            C6   1.547       .  S
C1            C5   1.549       .  S
C3            H4   1.107       .  S
C3            C9   1.560       .  S
C3            C8   1.529       .  S
C3           C10   1.532       .  S
C5            C8   1.374       .  D
C5         C3313   1.490       .  S
C6            C9   1.399       .  D
C6         C3281   1.518       .  S
C7           C10   1.369       .  D
C7         C3241   1.483       .  S
C8         C3265   1.484       .  S
C9         C3305   1.501       .  S
C10        C3257   1.505       .  S
C11          H12   1.097       .  S
C11          C17   1.539   1_554  S
C11          C16   1.534       .  S
C11          C15   1.540       .  S
C13          H14   1.110       .  S
C13          C19   1.544   1_556  S
C13          C18   1.535       .  S
C13          C20   1.546       .  S
C15          C18   1.380   1_554  D
C15        C3161   1.515       .  S
C16          C19   1.376       .  D
C16        C3169   1.479       .  S
C17          C20   1.381       .  D
C17        C3201   1.509       .  S
C18        C3137   1.489   1_556  S
C19        C3217   1.491       .  S
C20        C3185   1.478       .  S
C21          H22   1.109       .  S
C21          C27   1.547       .  S
C21          C26   1.536       .  S
C21          C25   1.557       .  S
C23          H24   1.112       .  S
C23          C29   1.545       .  S
C23          C28   1.514       .  S
C23          C30   1.540       .  S
C25          C28   1.374       .  D
C25        C3049   1.484       .  S
C26          C29   1.373       .  D
C26        C3097   1.487       .  S
C27          C30   1.385       .  D
C27        C3113   1.515       .  S
C28        C3057   1.495       .  S
C29        C3129   1.473       .  S
C30        C3081   1.480       .  S
C31          H32   1.109       .  S
C31          C37   1.540       .  S
C31          C36   1.538       .  S
C31          C35   1.535       .  S
C33          H34   1.102       .  S
C33          C39   1.541       .  S
C33          C38   1.541       .  S
C33          C40   1.561       .  S
C35          C38   1.376       .  D
C35        C2953   1.468       .  S
C36          C39   1.371       .  D
C36        C2977   1.494       .  S
C37          C40   1.388       .  D
C37        C3033   1.497       .  S
C38        C2961   1.533       .  S
C39        C3017   1.487       .  S
C40        C3001   1.496       .  S
C41          H42   1.112       .  S
C41          C47   1.543       .  S
C41          C46   1.529       .  S
C41          C45   1.520       .  S
C43          H44   1.107       .  S
C43          C49   1.541       .  S
C43          C48   1.535       .  S
C43          C50   1.543       .  S
C45          C48   1.369       .  D
C45        C2857   1.466       .  S
C46          C49   1.372       .  D
C46        C2881   1.474       .  S
C47          C50   1.381       .  D
C47        C2913   1.487       .  S
C48        C2865   1.496       .  S
C49        C2937   1.479       .  S
C50        C2897   1.485       .  S
C51          H52   1.110       .  S
C51          C57   1.533       .  S
C51          C56   1.545       .  S
C51          C55   1.549       .  S
C53          H54   1.110       .  S
C53          C59   1.541       .  S
C53          C58   1.533       .  S
C53          C60   1.519       .  S
C55          C58   1.383       .  D
C55        C2833   1.495       .  S
C56          C59   1.384       .  D
C56        C2801   1.484       .  S
C57          C60   1.364       .  D
C57        C2769   1.485       .  S
C58        C2785   1.475       .  S
C59        C2825   1.499       .  S
C60        C2753   1.477       .  S
C61          H62   1.111       .  S
C61          C67   1.538       .  S
C61          C66   1.536   1_455  S
C61          C65   1.539       .  S
C63          H64   1.111       .  S
C63          C69   1.542   1_455  S
C63          C68   1.534       .  S
C63          C70   1.542       .  S
C65          C68   1.378       .  D
C65        C2737   1.488       .  S
C66          C69   1.379       .  D
C66        C2705   1.479       .  S
C67          C70   1.382       .  D
C67        C2665   1.498       .  S
C68        C2697   1.477       .  S
C69        C2721   1.496       .  S
C70        C2681   1.501       .  S
C71          H72   1.107       .  S
C71          C77   1.539       .  S
C71          C76   1.539   1_545  S
C71          C75   1.541       .  S
C73          H74   1.110       .  S
C73          C79   1.545   1_545  S
C73          C78   1.545       .  S
C73          C80   1.528       .  S
C75          C78   1.384       .  D
C75        C2585   1.524       .  S
C76          C79   1.383       .  D
C76        C2609   1.474       .  S
C77          C80   1.368       .  D
C77        C2649   1.481       .  S
C78        C2561   1.474       .  S
C79        C2625   1.514       .  S
C80        C2601   1.478       .  S
C81          H82   1.107       .  S
C81          C87   1.527       .  S
C81          C86   1.545       .  S
C81          C85   1.533       .  S
C83          H84   1.106       .  S
C83          C89   1.547       .  S
C83          C88   1.539       .  S
C83          C90   1.537       .  S
C85          C88   1.376       .  D
C85        C2545   1.475       .  S
C86          C89   1.388       .  D
C86        C2505   1.510       .  S
C87          C90   1.372       .  D
C87        C2465   1.478       .  S
C88        C2513   1.493       .  S
C89        C2529   1.481       .  S
C90        C2489   1.502       .  S
C91          C92   1.541       .  S
C91          C97   1.536       .  S
C91          C95   1.542       .  S
C91        C2449   1.544       .  S
C92          C93   1.375       .  D
C92          H99   1.086       .  S
C93          C94   1.550       .  S
C93         C173   1.491       .  S
C94         H100   1.111       .  S
C94          C98   1.548       .  S
C94          C96   1.528       .  S
C95          C96   1.356       .  D
C95         H101   1.081       .  S
C96        C2521   1.463       .  S
C97          C98   1.371       .  D
C97         H102   1.086       .  S
C98        C2633   1.495       .  S
C103        C104   1.535       .  S
C103        C109   1.538       .  S
C103        C107   1.536       .  S
C103       C2433   1.533       .  S
C104        C105   1.361       .  D
C104        H111   1.083       .  S
C105        C106   1.537       .  S
C105       C2593   1.476       .  S
C106        H112   1.111       .  S
C106        C110   1.537       .  S
C106        C108   1.557       .  S
C107        C108   1.378       .  D
C107        H113   1.086       .  S
C108        C177   1.485       .  S
C109        C110   1.359       .  D
C109        H114   1.088       .  S
C110       C2729   1.483       .  S
C115        C116   1.545       .  S
C115        C121   1.538       .  S
C115        C119   1.543       .  S
C115       C2417   1.548       .  S
C116        C117   1.358       .  D
C116        H123   1.082       .  S
C117        C118   1.531       .  S
C117       C2401   1.479       .  S
C118        H124   1.111       .  S
C118        C122   1.544       .  S
C118        C120   1.557       .  S
C119        C120   1.381       .  D
C119        H125   1.085   1_565  S
C120        C170   1.503       .  S
C121        C122   1.359       .  D
C121        H126   1.087       .  S
C122       C2537   1.480       .  S
C127        C128   1.553       .  S
C127        C133   1.527       .  S
C127        C131   1.540       .  S
C127       C2385   1.540       .  S
C128        C129   1.391       .  D
C128        H135   1.085       .  S
C129        C130   1.561       .  S
C129        C176   1.505       .  S
C130        H136   1.110       .  S
C130        C134   1.533       .  S
C130        C132   1.536       .  S
C131        C132   1.358       .  D
C131        H137   1.086       .  S
C132       C2689   1.483       .  S
C133        C134   1.350       .  D
C133        H138   1.089       .  S
C134       C2929   1.470       .  S
C139        C140   1.539       .  S
C139        C145   1.523       .  S
C139        C143   1.535       .  S
C139       C2377   1.524       .  S
C140        C141   1.355       .  D
C140        H147   1.087       .  S
C141        C142   1.521       .  S
C141       C2905   1.455       .  S
C142        H148   1.108       .  S
C142        C146   1.560       .  S
C142        C144   1.562       .  S
C143        C144   1.378       .  D
C143        H149   1.086   1_455  S
C144        C184   1.490       .  S
C145        C146   1.363       .  D
C145        H150   1.079       .  S
C146       C2361   1.519       .  S
C151        C152   1.528       .  S
C151        C157   1.541       .  S
C151        C155   1.541       .  S
C151       C3249   1.536       .  S
C152        C153   1.372       .  D
C152        H159   1.086       .  S
C153        C154   1.554       .  S
C153        C166   1.485       .  S
C154        H160   1.110       .  S
C154        C158   1.537       .  S
C154        C156   1.543       .  S
C155        C156   1.365       .  D
C155        H161   1.082       .  S
C156       C2321   1.488       .  S
C157        C158   1.362       .  D
C157        H162   1.086       .  S
C158       C2337   1.480       .  S
O163       Ni169   1.947   1_455  S
O163        C184   1.278       .  A
O164       Ni187   1.936   1_565  S
O164        C173   1.276       .  A
O165       Ni169   1.905       .  S
O165       Ni187   1.914       .  S
O165       Ni181   1.913   1_655  S
O165        H188   0.965       .  S
C166        O183   1.278       .  A
C166        O175   1.278       .  A
O167       Ni186   1.939       .  S
O167        C173   1.275       .  A
O168       Ni186   1.930       .  S
O168        C170   1.273       .  A
Ni169       O172   1.934       .  S
Ni169       O174   1.930   1_655  S
C170        O180   1.276       .  A
O171       Ni187   1.942       .  S
O171        C177   1.284       .  A
O172        C177   1.279       .  A
O174        C176   1.274       .  A
O175       Ni186   1.934   1_455  S
C176        O182   1.277       .  A
H178        O179   0.967       .  S
O179       Ni187   1.921   1_465  S
O179       Ni181   1.917   1_565  S
O179       Ni186   1.907   1_455  S
O180       Ni181   1.946   1_665  S
Ni181       O185   1.923       .  S
Ni181       O183   1.935   1_545  S
O182       Ni187   1.952   1_455  S
C184        O185   1.270       .  A
C189        H190   1.111       .  S
C189        C195   1.545       .  S
C189        C194   1.538       .  S
C189        C193   1.537       .  S
C191        H192   1.104       .  S
C191        C197   1.552       .  S
C191        C196   1.537       .  S
C191        C198   1.518       .  S
C193        C196   1.380       .  D
C193       C2441   1.484       .  S
C194        C197   1.384       .  D
C194       C2281   1.497       .  S
C195        C198   1.367       .  D
C195       C2313   1.471       .  S
C196       C2241   1.505       .  S
C197       C2289   1.497       .  S
C198       C2265   1.477       .  S
C199        H200   1.109   1_655  S
C199        C205   1.543   1_655  S
C199        C204   1.527       .  S
C199        C203   1.518       .  S
C201        H202   1.110       .  S
C201        C207   1.543       .  S
C201        C206   1.524       .  S
C201        C208   1.549   1_655  S
C203        C206   1.359       .  D
C203       C2201   1.462   1_655  S
C204        C207   1.370       .  D
C204       C2409   1.478       .  S
C205        C208   1.389       .  D
C205       C2345   1.496       .  S
C206       C2177   1.481       .  S
C207       C2225   1.466       .  S
C208       C2217   1.490       .  S
C209        C210   1.533       .  S
C209        C215   1.526       .  S
C209        C213   1.528       .  S
C209       C2169   1.516       .  S
C210        C211   1.359       .  D
C210        H217   1.087       .  S
C211        C212   1.543       .  S
C211       C2209   1.468       .  S
C212        H218   1.110       .  S
C212        C216   1.551       .  S
C212        C214   1.553       .  S
C213        C214   1.372       .  D
C213        H219   1.085       .  S
C214        C295   1.477       .  S
C215        C216   1.358       .  D
C215        H220   1.087       .  S
C216       C3297   1.488       .  S
C221        C222   1.543       .  S
C221        C227   1.539       .  S
C221        C225   1.530       .  S
C221       C2873   1.533       .  S
C222        C223   1.359       .  D
C222        H229   1.083       .  S
C223        C224   1.541       .  S
C223       C3089   1.485       .  S
C224        H230   1.111       .  S
C224        C228   1.542       .  S
C224        C226   1.557       .  S
C225        C226   1.370       .  D
C225        H231   1.086       .  S
C226        C302   1.483       .  S
C227        C228   1.362       .  D
C227        H232   1.087       .  S
C228       C2745   1.481       .  S
C233        C234   1.530       .  S
C233        C239   1.536       .  S
C233        C237   1.542       .  S
C233       C2481   1.539       .  S
C234        C235   1.373       .  D
C234        H241   1.086       .  S
C235        C236   1.562       .  S
C235        C291   1.484       .  S
C236        H242   1.111       .  S
C236        C240   1.535       .  S
C236        C238   1.544       .  S
C237        C238   1.362       .  D
C237        H243   1.081       .  S
C238       C2145   1.500       .  S
C239        C240   1.357       .  D
C239        H244   1.087       .  S
C240       C2233   1.462       .  S
C245        C246   1.534       .  S
C245        C251   1.527       .  S
C245        C249   1.539       .  S
C245       C2777   1.528       .  S
C246        C247   1.376       .  D
C246        H253   1.086       .  S
C247        C248   1.552       .  S
C247        C284   1.483       .  S
C248        H254   1.111       .  S
C248        C252   1.536       .  S
C248        C250   1.544       .  S
C249        C250   1.366       .  D
C249        H255   1.084       .  S
C250       C2713   1.487       .  S
C251        C252   1.355       .  D
C251        H256   1.088       .  S
C252       C2305   1.464       .  S
C257        C258   1.543       .  S
C257        C263   1.536       .  S
C257        C261   1.570       .  S
C257       C2129   1.573       .  S
C258        C259   1.354       .  D
C258        H265   1.084       .  S
C259        C260   1.533       .  S
C259       C2273   1.474       .  S
C260        H266   1.110       .  S
C260        C264   1.548       .  S
C260        C262   1.570       .  S
C261        C262   1.393       .  D
C261        H267   1.085   1_655  S
C262        C288   1.538       .  S
C263        C264   1.363       .  D
C263        H268   1.084       .  S
C264       C2113   1.501       .  S
C269        C270   1.574       .  S
C269        C275   1.535       .  S
C269        C273   1.535       .  S
C269       C2097   1.558       .  S
C270        C271   1.397       .  D
C270        H277   1.084       .  S
C271        C272   1.567       .  S
C271        C294   1.535       .  S
C272        H278   1.110       .  S
C272        C276   1.543       .  S
C272        C274   1.532       .  S
C273        C274   1.357       .  D
C273        H279   1.087       .  S
C274       C3273   1.477       .  S
C275        C276   1.361       .  D
C275        H280   1.086       .  S
C276       C3105   1.505       .  S
O281       Ni287   1.924       .  S
O281        C302   1.270       .  A
O282       Ni305   1.941   1_655  S
O282        C291   1.281       .  A
O283       Ni287   1.892       .  S
O283       Ni305   1.908       .  S
O283       Ni299   1.919   1_455  S
O283        H306   0.966       .  S
C284        O301   1.286       .  A
C284        O293   1.281       .  A
O285       Ni304   1.927       .  S
O285        C291   1.271       .  A
O286       Ni304   1.928       .  S
O286        C288   1.271       .  A
Ni287       O290   1.917       .  S
Ni287       O292   1.918       .  S
C288        O298   1.290       .  A
O289       Ni305   1.947       .  S
O289        C295   1.286       .  A
O290        C295   1.280       .  A
O292        C294   1.271       .  A
O293       Ni304   1.924       .  S
C294        O300   1.290       .  A
H296        O297   0.967       .  S
O297       Ni305   1.920   1_655  S
O297       Ni299   1.908       .  S
O297       Ni304   1.892       .  S
O298       Ni299   2.003       .  S
Ni299       O303   1.938   1_655  S
Ni299       O301   1.948       .  S
O300       Ni305   2.006       .  S
C302        O303   1.279       .  A
C307        C308   1.532       .  S
C307        C313   1.542       .  S
C307        C311   1.542       .  S
C307       C2081   1.522       .  S
C308        C309   1.369       .  D
C308        H315   1.086   1_554  S
C309        C310   1.536       .  S
C309        C382   1.468       .  S
C310        H316   1.111       .  S
C310        C314   1.531       .  S
C310        C312   1.529       .  S
C311        C312   1.363       .  D
C311        H317   1.080       .  S
C312       C2793   1.470       .  S
C313        C314   1.358       .  D
C313        H318   1.087       .  S
C314       C3009   1.468       .  S
C319        C320   1.535       .  S
C319        C325   1.531       .  S
C319        C323   1.527       .  S
C319       C2065   1.524       .  S
C320        C321   1.362       .  D
C320        H327   1.086       .  S
C321        C322   1.549       .  S
C321       C3177   1.509       .  S
C322        H328   1.109       .  S
C322        C326   1.540       .  S
C322        C324   1.574       .  S
C323        C324   1.379       .  D
C323        H329   1.086       .  S
C324        C400   1.486       .  S
C325        C326   1.358       .  D
C325        H330   1.087       .  S
C326       C2817   1.489       .  S
C331        C332   1.533       .  S
C331        C337   1.542       .  S
C331        C335   1.541       .  S
C331       C2049   1.543       .  S
C332        C333   1.377       .  D
C332        H339   1.086       .  S
C333        C334   1.563       .  S
C333        C389   1.489       .  S
C334        H340   1.111       .  S
C334        C338   1.539       .  S
C334        C336   1.539       .  S
C335        C336   1.360       .  D
C335        H341   1.080       .  S
C336       C2025   1.490       .  S
C337        C338   1.362       .  D
C337        H342   1.087       .  S
C338       C2041   1.484       .  S
C343        C344   1.538       .  S
C343        C349   1.526       .  S
C343        C347   1.547       .  S
C343       C2009   1.534       .  S
C344        C345   1.356       .  D
C344        H351   1.085       .  S
C345        C346   1.527       .  S
C345       C1993   1.456       .  S
C346        H352   1.111       .  S
C346        C350   1.534       .  S
C346        C348   1.540       .  S
C347        C348   1.387       .  D
C347        H353   1.085       .  S
C348        C393   1.481       .  S
C349        C350   1.358       .  D
C349        H354   1.088       .  S
C350       C1969   1.475       .  S
C355        C356   1.569       .  S
C355        C361   1.541       .  S
C355        C359   1.545       .  S
C355       C1961   1.568       .  S
C356        C357   1.392       .  D
C356        H363   1.085       .  S
C357        C358   1.553       .  S
C357        C392   1.525       .  S
C358        H364   1.111       .  S
C358        C362   1.534       .  S
C358        C360   1.529       .  S
C359        C360   1.358       .  D
C359        H365   1.082       .  S
C360       C1945   1.479       .  S
C361        C362   1.360       .  D
C361        H366   1.086       .  S
C362       C3209   1.481       .  S
C367        C368   1.529       .  S
C367        C373   1.529       .  S
C367        C371   1.554       .  S
C367       C3065   1.544       .  S
C368        C369   1.360       .  D
C368        H375   1.085       .  S
C369        C370   1.544       .  S
C369       C2993   1.498       .  S
C370        H376   1.110       .  S
C370        C374   1.537       .  S
C370        C372   1.568       .  S
C371        C372   1.392       .  D
C371        H377   1.085       .  S
C372        C386   1.510       .  S
C373        C374   1.356       .  D
C373        H378   1.088       .  S
C374       C1929   1.481       .  S
O379       Ni385   1.938   1_554  S
O379        C400   1.275       .  A
O380       Ni403   1.952       .  S
O380        C389   1.283       .  A
O381       Ni385   1.892   1_554  S
O381       Ni403   1.909   1_554  S
O381       Ni397   1.907       .  S
O381        H404   0.965       .  S
C382        O399   1.281       .  A
C382        O391   1.277       .  A
O383       Ni402   1.920       .  S
O383        C389   1.270       .  A
O384       Ni402   1.929   1_554  S
O384        C386   1.272       .  A
Ni385       O388   1.927       .  S
Ni385       O390   1.931       .  S
C386        O396   1.279       .  A
O387       Ni403   1.944       .  S
O387        C393   1.289       .  A
O388        C393   1.279       .  A
O390        C392   1.275       .  A
O391       Ni402   1.919   1_554  S
C392        O398   1.284       .  A
H394        O395   0.967       .  S
O395       Ni403   1.918       .  S
O395       Ni397   1.904   1_556  S
O395       Ni402   1.893       .  S
O396       Ni397   1.964       .  S
Ni397       O401   1.928       .  S
Ni397       O399   1.932       .  S
O398       Ni403   1.981       .  S
C400        O401   1.274       .  A
C405        H406   1.111       .  S
C405        C411   1.547       .  S
C405        C410   1.536       .  S
C405        C409   1.521       .  S
C407        H408   1.109       .  S
C407        C413   1.543       .  S
C407        C412   1.527       .  S
C407        C414   1.533       .  S
C409        C412   1.365       .  D
C409       C2161   1.471       .  S
C410        C413   1.380       .  D
C410       C1889   1.481       .  S
C411        C414   1.380       .  D
C411       C1913   1.482       .  S
C412       C1873   1.481       .  S
C413       C2033   1.498       .  S
C414       C1985   1.482       .  S
C415        C416   1.541       .  S
C415        C421   1.529       .  S
C415        C419   1.532       .  S
C415       C2473   1.528       .  S
C416        C417   1.381       .  D
C416        H423   1.086       .  S
C417        C418   1.554       .  S
C417        C497   1.483       .  S
C418        H424   1.111       .  S
C418        C422   1.541       .  S
C418        C420   1.532       .  S
C419        C420   1.353       .  D
C419        H425   1.084       .  S
C420       C2809   1.464       .  S
C421        C422   1.358       .  D
C421        H426   1.088       .  S
C422       C1857   1.474       .  S
C427        C428   1.535       .  S
C427        C433   1.532       .  S
C427        C431   1.533       .  S
C427       C1849   1.525       .  S
C428        C429   1.380       .  D
C428        H435   1.085       .  S
C429        C430   1.554       .  S
C429        C490   1.480       .  S
C430        H436   1.110       .  S
C430        C434   1.537       .  S
C430        C432   1.536       .  S
C431        C432   1.353       .  D
C431        H437   1.086       .  S
C432       C1825   1.470       .  S
C433        C434   1.361       .  D
C433        H438   1.087       .  S
C434       C2297   1.482       .  S
C439        C440   1.547       .  S
C439        C445   1.540       .  S
C439        C443   1.542       .  S
C439       C1809   1.552       .  S
C440        C441   1.379       .  D
C440        H447   1.085       .  S
C441        C442   1.556       .  S
C441        C500   1.504       .  S
C442        H448   1.110       .  S
C442        C446   1.532       .  S
C442        C444   1.543       .  S
C443        C444   1.366       .  D
C443        H449   1.085       .  S
C444       C3289   1.481       .  S
C445        C446   1.358       .  D
C445        H450   1.084       .  S
C446       C1905   1.488       .  S
C451        C452   1.538       .  S
C451        C457   1.536       .  S
C451        C455   1.527       .  S
C451       C3041   1.528       .  S
C452        C453   1.356       .  D
C452        H459   1.079       .  S
C453        C454   1.533       .  S
C453       C1801   1.463       .  S
C454        H460   1.111       .  S
C454        C458   1.547       .  S
C454        C456   1.555       .  S
C455        C456   1.372       .  D
C455        H461   1.086       .  S
C456        C501   1.480       .  S
C457        C458   1.361       .  D
C457        H462   1.087       .  S
C458       C3321   1.484       .  S
C463        C464   1.545       .  S
C463        C469   1.535       .  S
C463        C467   1.546       .  S
C463       C2969   1.553       .  S
C464        C465   1.362       .  D
C464        H471   1.083       .  S
C465        C466   1.533       .  S
C465       C2257   1.478       .  S
C466        H472   1.110       .  S
C466        C470   1.539       .  S
C466        C468   1.557       .  S
C467        C468   1.382       .  D
C467        H473   1.085       .  S
C468        C494   1.505       .  S
C469        C470   1.360       .  D
C469        H474   1.085       .  S
C470       C2841   1.489       .  S
C475        C476   1.534       .  S
C475        C481   1.523       .  S
C475        C479   1.539       .  S
C475       C2849   1.517       .  S
C476        C477   1.351       .  D
C476        H483   1.088       .  S
C477        C478   1.531       .  S
C477       C1897   1.464       .  S
C478        H484   1.111       .  S
C478        C482   1.548       .  S
C478        C480   1.556       .  S
C479        C480   1.381       .  D
C479        H485   1.085       .  S
C480        C508   1.481       .  S
C481        C482   1.354       .  D
C481        H486   1.089       .  S
C482       C1777   1.475       .  S
O487       Ni493   1.935       .  S
O487        C508   1.275       .  A
O488       Ni511   1.939       .  S
O488        C497   1.278       .  A
O489       Ni493   1.901       .  S
O489       Ni511   1.908       .  S
O489       Ni505   1.920       .  S
O489        H512   0.966       .  S
C490        O507   1.284       .  A
C490        O499   1.277       .  A
O491       Ni510   1.921       .  S
O491        C497   1.272       .  A
O492       Ni510   1.932       .  S
O492        C494   1.273       .  A
Ni493       O496   1.922       .  S
Ni493       O498   1.927       .  S
C494        O504   1.276       .  A
O495       Ni511   1.947       .  S
O495        C501   1.286       .  A
O496        C501   1.278       .  A
O498        C500   1.273       .  A
O499       Ni510   1.922       .  S
C500        O506   1.279       .  A
H502        O503   0.967       .  S
O503       Ni511   1.926       .  S
O503       Ni505   1.903       .  S
O503       Ni510   1.899       .  S
O504       Ni505   1.950       .  S
Ni505       O509   1.923       .  S
Ni505       O507   1.945       .  S
O506       Ni511   1.958       .  S
C508        O509   1.271       .  A
C513        H514   1.098       .  S
C513        C519   1.544       .  S
C513        C518   1.527       .  S
C513        C517   1.547       .  S
C515        H516   1.104       .  S
C515        C521   1.565       .  S
C515        C520   1.528       .  S
C515        C522   1.552       .  S
C517        C520   1.368       .  D
C517       C1761   1.489       .  S
C518        C521   1.387       .  D
C518       C1745   1.498       .  S
C519        C522   1.388       .  D
C519       C1729   1.525       .  S
C520       C1937   1.486       .  S
C521       C1977   1.494       .  S
C522       C1817   1.524       .  S
C523        H524   1.103       .  S
C523        C529   1.530   1_565  S
C523        C528   1.556   1_565  S
C523        C527   1.523       .  S
C525        H526   1.109       .  S
C525        C531   1.559       .  S
C525        C530   1.548   1_545  S
C525        C532   1.538       .  S
C527        C530   1.376       .  D
C527       C1697   1.496       .  S
C528        C531   1.399       .  D
C528       C1673   1.517       .  S
C529        C532   1.368       .  D
C529       C1649   1.502       .  S
C530       C1689   1.480       .  S
C531       C1713   1.502       .  S
C532       C2393   1.491       .  S
C533        H534   1.108       .  S
C533        C539   1.558   1_554  S
C533        C538   1.533       .  S
C533        C537   1.546       .  S
C535        H536   1.108       .  S
C535        C541   1.544       .  S
C535        C540   1.534       .  S
C535        C542   1.542   1_554  S
C537        C540   1.377       .  D
C537       C2001   1.488       .  S
C538        C541   1.371       .  D
C538       C1585   1.487       .  S
C539        C542   1.396       .  D
C539       C1617   1.514       .  S
C540       C1577   1.516       .  S
C541       C1633   1.488       .  S
C542       C1601   1.494       .  S
C543        C544   1.562       .  S
C543        C549   1.534       .  S
C543        C547   1.534       .  S
C543       C1553   1.545       .  S
C544        C545   1.389       .  D
C544        H551   1.085   1_565  S
C545        C546   1.560       .  S
C545        C628   1.517       .  S
C546        H552   1.109       .  S
C546        C550   1.547       .  S
C546        C548   1.529       .  S
C547        C548   1.356       .  D
C547        H553   1.087       .  S
C548       C1753   1.463       .  S
C549        C550   1.363       .  D
C549        H554   1.085       .  S
C550       C1625   1.507       .  S
C555        C556   1.526       .  S
C555        C561   1.530       .  S
C555        C559   1.524       .  S
C555       C3153   1.540       .  S
C556        C557   1.366       .  D
C556        H563   1.079       .  S
C557        C558   1.567       .  S
C557       C1537   1.520       .  S
C558        H564   1.110       .  S
C558        C562   1.557       .  S
C558        C560   1.581       .  S
C559        C560   1.373       .  D
C559        H565   1.087       .  S
C560        C629   1.512       .  S
C561        C562   1.363       .  D
C561        H566   1.087       .  S
C562       C1769   1.486       .  S
C567        C568   1.542       .  S
C567        C573   1.539       .  S
C567        C571   1.523       .  S
C567       C1529   1.538       .  S
C568        C569   1.359       .  D
C568        H575   1.082       .  S
C569        C570   1.544       .  S
C569       C1593   1.494       .  S
C570        H576   1.110       .  S
C570        C574   1.546       .  S
C570        C572   1.570       .  S
C571        C572   1.368       .  D
C571        H577   1.086       .  S
C572        C636   1.491       .  S
C573        C574   1.365       .  D
C573        H578   1.086       .  S
C574       C1705   1.486       .  S
C579        C580   1.535       .  S
C579        C585   1.521       .  S
C579        C583   1.526       .  S
C579       C1513   1.523       .  S
C580        C581   1.379       .  D
C580        H587   1.085       .  S
C581        C582   1.559       .  S
C581        C618   1.484       .  S
C582        H588   1.110       .  S
C582        C586   1.551       .  S
C582        C584   1.533       .  S
C583        C584   1.365       .  D
C583        H589   1.087       .  S
C584       C1665   1.478       .  S
C585        C586   1.359       .  D
C585        H590   1.086       .  S
C586       C3025   1.491       .  S
C591        C592   1.528       .  S
C591        C597   1.540       .  S
C591        C595   1.540       .  S
C591       C1489   1.531       .  S
C592        C593   1.370       .  D
C592        H599   1.086       .  S
C593        C594   1.555       .  S
C593        C625   1.474       .  S
C594        H600   1.110       .  S
C594        C598   1.534       .  S
C594        C596   1.537       .  S
C595        C596   1.363       .  D
C595        H601   1.078       .  S
C596       C1473   1.492       .  S
C597        C598   1.361       .  D
C597        H602   1.086       .  S
C598       C1465   1.479       .  S
C603        C604   1.541       .  S
C603        C609   1.555       .  S
C603        C607   1.533       .  S
C603       C2577   1.553       .  S
C604        C605   1.363       .  D
C604        H611   1.082       .  S
C605        C606   1.551       .  S
C605       C2985   1.518       .  S
C606        H612   1.110       .  S
C606        C610   1.530       .  S
C606        C608   1.577       .  S
C607        C608   1.376       .  D
C607        H613   1.086       .  S
C608        C622   1.509       .  S
C609        C610   1.363       .  D
C609        H614   1.085       .  S
C610       C1441   1.487       .  S
O615       Ni621   1.955       .  S
O615        C636   1.279       .  A
O616       Ni639   1.926       .  S
O616        C625   1.275       .  A
O617       Ni621   1.903       .  S
O617       Ni639   1.915   1_564  S
O617       Ni633   1.930   1_565  S
O617        H640   0.966       .  S
C618        O635   1.286       .  A
C618        O627   1.279       .  A
O619       Ni638   1.926       .  S
O619        C625   1.271       .  A
O620       Ni638   1.924   1_554  S
O620        C622   1.270       .  A
Ni621       O624   1.949   1_554  S
Ni621       O626   1.925   1_554  S
C622        O632   1.283       .  A
O623       Ni639   1.962   1_565  S
O623        C629   1.284       .  A
O624        C629   1.284       .  A
O626        C628   1.273       .  A
O627       Ni638   1.924   1_554  S
C628        O634   1.284       .  A
H630        O631   0.966       .  S
O631       Ni639   1.929       .  S
O631       Ni633   1.900   1_556  S
O631       Ni638   1.900       .  S
O632       Ni633   1.964       .  S
Ni633       O637   1.926   1_545  S
Ni633       O635   1.951       .  S
O634       Ni639   1.977   1_565  S
C636        O637   1.276       .  A
C641        H642   1.108       .  S
C641        C647   1.552       .  S
C641        C646   1.536   1_655  S
C641        C645   1.532       .  S
C643        H644   1.112       .  S
C643        C649   1.545   1_655  S
C643        C648   1.547       .  S
C643        C650   1.545       .  S
C645        C648   1.380       .  D
C645       C1409   1.502       .  S
C646        C649   1.379       .  D
C646       C1385   1.484       .  S
C647        C650   1.385       .  D
C647       C2457   1.507   1_655  S
C648       C1393   1.477       .  S
C649       C1425   1.493       .  S
C650       C2105   1.510   1_655  S
C651        H652   1.105   1_554  S
C651        C657   1.540       .  S
C651        C656   1.539   1_554  S
C651        C655   1.542       .  S
C653        H654   1.109       .  S
C653        C659   1.541   1_554  S
C653        C658   1.544       .  S
C653        C660   1.528       .  S
C655        C658   1.380       .  D
C655       C1449   1.509       .  S
C656        C659   1.379       .  D
C656       C1481   1.474       .  S
C657        C660   1.374       .  D
C657       C2089   1.494   1_554  S
C658       C1353   1.484       .  S
C659       C1369   1.488       .  S
C660       C1329   1.493   1_554  S
C661        H662   1.101       .  S
C661        C667   1.534       .  S
C661        C666   1.521       .  S
C661        C665   1.549       .  S
C663        H664   1.112       .  S
C663        C669   1.553       .  S
C663        C668   1.551       .  S
C663        C670   1.535       .  S
C665        C668   1.397       .  D
C665       C2353   1.529       .  S
C666        C669   1.375       .  D
C666       C2329   1.487   1_545  S
C667        C670   1.368       .  D
C667       C1281   1.478       .  S
C668       C1305   1.479       .  S
C669       C1321   1.482   1_545  S
C670       C1561   1.501       .  S
C671        C672   1.530       .  S
C671        C677   1.549       .  S
C671        C675   1.540       .  S
C671       C1273   1.544       .  S
C672        C673   1.372       .  D
C672        H679   1.086       .  S
C673        C674   1.581       .  S
C673        C756   1.512       .  S
C674        H680   1.110       .  S
C674        C678   1.551       .  S
C674        C676   1.542       .  S
C675        C676   1.359       .  D
C675        H681   1.081       .  S
C676       C1297   1.495       .  S
C677        C678   1.368       .  D
C677        H682   1.085       .  S
C678       C1249   1.509       .  S
C683        C684   1.531       .  S
C683        C689   1.543       .  S
C683        C687   1.539       .  S
C683       C1657   1.539       .  S
C684        C685   1.374       .  D
C684        H691   1.086   1_565  S
C685        C686   1.565       .  S
C685        C753   1.491       .  S
C686        H692   1.111       .  S
C686        C690   1.538       .  S
C686        C688   1.545       .  S
C687        C688   1.359       .  D
C687        H693   1.081       .  S
C688       C1377   1.495       .  S
C689        C690   1.361       .  D
C689        H694   1.087       .  S
C690       C1641   1.476       .  S
C695        C696   1.529       .  S
C695        C701   1.542       .  S
C695        C699   1.541       .  S
C695       C2673   1.542       .  S
C696        C697   1.382       .  D
C696        H703   1.086       .  S
C697        C698   1.568       .  S
C697        C746   1.493       .  S
C698        H704   1.111       .  S
C698        C702   1.529       .  S
C698        C700   1.549       .  S
C699        C700   1.362       .  D
C699        H705   1.080       .  S
C700       C1345   1.503       .  S
C701        C702   1.354       .  D
C701        H706   1.088       .  S
C702       C2641   1.470       .  S
C707        C708   1.536       .  S
C707        C713   1.528       .  S
C707        C711   1.559       .  S
C707       C3145   1.541       .  S
C708        C709   1.351       .  D
C708        H715   1.087       .  S
C709        C710   1.522       .  S
C709       C2617   1.458       .  S
C710        H716   1.110       .  S
C710        C714   1.552       .  S
C710        C712   1.570       .  S
C711        C712   1.390       .  D
C711        H717   1.085       .  S
C712        C750   1.518       .  S
C713        C714   1.357       .  D
C713        H718   1.088       .  S
C714       C1417   1.501       .  S
C719        C720   1.531       .  S
C719        C725   1.527       .  S
C719        C723   1.532       .  S
C719       C2193   1.513       .  S
C720        C721   1.362       .  D
C720        H727   1.087       .  S
C721        C722   1.537       .  S
C721       C1609   1.461       .  S
C722        H728   1.111       .  S
C722        C726   1.530       .  S
C722        C724   1.545       .  S
C723        C724   1.370       .  D
C723        H729   1.084       .  S
C724        C757   1.473       .  S
C725        C726   1.359       .  D
C725        H730   1.088       .  S
C726       C1313   1.464       .  S
C731        C732   1.542       .  S
C731        C737   1.527       .  S
C731        C735   1.543       .  S
C731       C1241   1.526       .  S
C732        C733   1.359       .  D
C732        H739   1.086       .  S
C733        C734   1.534       .  S
C733       C1217   1.477       .  S
C734        H740   1.110       .  S
C734        C738   1.535       .  S
C734        C736   1.554       .  S
C735        C736   1.376       .  D
C735        H741   1.085       .  S
C736        C764   1.484       .  S
C737        C738   1.360       .  D
C737        H742   1.087       .  S
C738       C1361   1.474       .  S
O743       Ni749   1.924       .  S
O743        C764   1.270       .  A
O744       Ni767   1.950   1_554  S
O744        C753   1.282       .  A
O745       Ni749   1.895       .  S
O745       Ni767   1.908   1_645  S
O745       Ni761   1.916   1_556  S
O745        H768   0.966   1_545  S
C746        O763   1.287       .  A
C746        O755   1.280       .  A
O747       Ni766   1.926   1_465  S
O747        C753   1.269       .  A
O748       Ni766   1.916   1_565  S
O748        C750   1.270       .  A
Ni749       O752   1.918   1_645  S
Ni749       O754   1.919   1_655  S
C750        O760   1.284       .  A
O751       Ni767   1.935       .  S
O751        C757   1.282       .  A
O752        C757   1.280       .  A
O754        C756   1.268       .  A
O755       Ni766   1.929       .  S
C756        O762   1.287       .  A
H758        O759   0.966       .  S
O759       Ni767   1.916   1_544  S
O759       Ni761   1.911   1_455  S
O759       Ni766   1.895   1_455  S
O760       Ni761   1.981   1_565  S
Ni761       O765   1.943   1_554  S
Ni761       O763   1.957       .  S
O762       Ni767   1.974   1_545  S
C764        O765   1.280       .  A
C769        H770   1.109   1_554  S
C769        C775   1.533       .  S
C769        C774   1.531   1_554  S
C769        C773   1.542       .  S
C771        H772   1.098       .  S
C771        C777   1.546   1_554  S
C771        C776   1.540       .  S
C771        C778   1.542       .  S
C773        C776   1.380       .  D
C773       C1921   1.501       .  S
C774        C777   1.378       .  D
C774       C2017   1.475       .  S
C775        C778   1.378       .  D
C775       C1505   1.478       .  S
C776       C1193   1.480       .  S
C777       C1209   1.503       .  S
C778       C1265   1.517       .  S
C779        H780   1.112       .  S
C779        C785   1.545       .  S
C779        C784   1.533       .  S
C779        C783   1.540       .  S
C781        H782   1.095       .  S
C781        C787   1.547       .  S
C781        C786   1.546       .  S
C781        C788   1.543       .  S
C783        C786   1.381       .  D
C783       C2121   1.503       .  S
C784        C787   1.380       .  D
C784       C2153   1.484       .  S
C785        C788   1.383       .  D
C785       C1841   1.476       .  S
C786       C1153   1.488       .  S
C787       C1169   1.495       .  S
C788       C1953   1.540       .  S
C789        H790   1.109       .  S
C789        C795   1.539       .  S
C789        C794   1.545   1_455  S
C789        C793   1.547       .  S
C791        H792   1.108       .  S
C791        C797   1.549   1_455  S
C791        C796   1.544       .  S
C791        C798   1.548       .  S
C793        C796   1.379       .  D
C793       C2369   1.473       .  S
C794        C797   1.388       .  D
C794       C1225   1.511       .  S
C795        C798   1.375       .  D
C795       C1257   1.504       .  S
C796       C2137   1.539       .  S
C797       C1137   1.488       .  S
C798       C1121   1.476       .  S
C799        C800   1.552       .  S
C799        C805   1.528       .  S
C799        C803   1.534       .  S
C799       C1337   1.536       .  S
C800        C801   1.386       .  D
C800        H807   1.085       .  S
C801        C802   1.578       .  S
C801        C884   1.520       .  S
C802        H808   1.110       .  S
C802        C806   1.548       .  S
C802        C804   1.545       .  S
C803        C804   1.359       .  D
C803        H809   1.087       .  S
C804       C1161   1.496       .  S
C805        C806   1.355       .  D
C805        H810   1.088       .  S
C806       C1145   1.491       .  S
C811        C812   1.547       .  S
C811        C817   1.544       .  S
C811        C815   1.525       .  S
C811       C1881   1.523       .  S
C812        C813   1.358       .  D
C812        H819   1.083       .  S
C813        C814   1.531       .  S
C813       C1129   1.480       .  S
C814        H820   1.110       .  S
C814        C818   1.531       .  S
C814        C816   1.536       .  S
C815        C816   1.362       .  D
C815        H821   1.086       .  S
C816        C892   1.461       .  S
C817        C818   1.368       .  D
C817        H822   1.086       .  S
C818       C1201   1.471       .  S
C823        C824   1.543       .  S
C823        C829   1.531       .  S
C823        C827   1.527       .  S
C823       C2185   1.525       .  S
C824        C825   1.371       .  D
C824        H831   1.083       .  S
C825        C826   1.543       .  S
C825       C3193   1.501       .  S
C826        H832   1.108       .  S
C826        C830   1.532       .  S
C826        C828   1.551       .  S
C827        C828   1.370       .  D
C827        H833   1.086       .  S
C828        C885   1.481       .  S
C829        C830   1.358       .  D
C829        H834   1.087       .  S
C830       C1177   1.470       .  S
C835        C836   1.535       .  S
C835        C841   1.534       .  S
C835        C839   1.542       .  S
C835       C2657   1.544       .  S
C836        C837   1.380       .  D
C836        H843   1.086       .  S
C837        C838   1.561       .  S
C837        C874   1.492       .  S
C838        H844   1.111       .  S
C838        C842   1.537       .  S
C838        C840   1.541       .  S
C839        C840   1.364       .  D
C839        H845   1.079       .  S
C840       C1185   1.494       .  S
C841        C842   1.355       .  D
C841        H846   1.088       .  S
C842       C3121   1.470       .  S
C847        C848   1.532       .  S
C847        C853   1.531       .  S
C847        C851   1.545       .  S
C847       C2761   1.523       .  S
C848        C849   1.370       .  D
C848        H855   1.086       .  S
C849        C850   1.552       .  S
C849        C881   1.472       .  S
C850        H856   1.109       .  S
C850        C854   1.533       .  S
C850        C852   1.538       .  S
C851        C852   1.363       .  D
C851        H857   1.085       .  S
C852       C1401   1.493       .  S
C853        C854   1.363       .  D
C853        H858   1.087       .  S
C854       C3225   1.480       .  S
C859        C860   1.540       .  S
C859        C865   1.541       .  S
C859        C863   1.558       .  S
C859       C1569   1.558       .  S
C860        C861   1.353       .  D
C860        H867   1.084       .  S
C861        C862   1.522       .  S
C861       C3073   1.458       .  S
C862        H868   1.111       .  S
C862        C866   1.543       .  S
C862        C864   1.560       .  S
C863        C864   1.387       .  D
C863        H869   1.085       .  S
C864        C878   1.518       .  S
C865        C866   1.362       .  D
C865        H870   1.086       .  S
C866       C1433   1.492       .  S
O871       Ni877   1.921       .  S
O871        C892   1.270       .  A
O872       Ni895   1.922   1_554  S
O872        C881   1.275       .  A
O873       Ni877   1.891       .  S
O873       Ni895   1.898   1_455  S
O873       Ni889   1.921   1_556  S
O873        H896   0.966       .  S
C874        O891   1.286       .  A
C874        O883   1.280       .  A
O875       Ni894   1.928       .  S
O875        C881   1.271       .  A
O876       Ni894   1.924   1_455  S
O876        C878   1.270       .  A
Ni877       O880   1.922   1_455  S
Ni877       O882   1.923   1_455  S
C878        O888   1.280       .  A
O879       Ni895   1.944       .  S
O879        C885   1.282       .  A
O880        C885   1.279       .  A
O882        C884   1.270       .  A
O883       Ni894   1.932   1_455  S
C884        O890   1.287       .  A
H886        O887   0.966       .  S
O887       Ni895   1.921   1_554  S
O887       Ni889   1.901   1_655  S
O887       Ni894   1.897       .  S
O888       Ni889   1.972       .  S
Ni889       O893   1.914   1_554  S
Ni889       O891   1.953       .  S
O890       Ni895   1.981       .  S
C892        O893   1.272       .  A
C897        H898   1.112       .  S
C897        C903   1.543       .  S
C897        C902   1.531       .  S
C897        C901   1.516       .  S
C899        H900   1.106       .  S
C899        C905   1.549       .  S
C899        C904   1.541       .  S
C899        C906   1.535       .  S
C901        C904   1.374       .  D
C901       C2073   1.469       .  S
C902        C905   1.382       .  D
C902       C1793   1.481       .  S
C903        C906   1.374       .  D
C903       C1865   1.482       .  S
C904       C1521   1.500       .  S
C905       C1113   1.494       .  S
C906       C1089   1.483       .  S
C907        H908   1.106       .  S
C907        C913   1.523       .  S
C907        C912   1.540       .  S
C907        C911   1.550       .  S
C909        H910   1.104       .  S
C909        C915   1.557       .  S
C909        C914   1.543       .  S
C909        C916   1.535       .  S
C911        C914   1.386       .  D
C911       C1785   1.490       .  S
C912        C915   1.391       .  D
C912       C1833   1.498       .  S
C913        C916   1.367       .  D
C913       C2057   1.499       .  S
C914       C1057   1.511       .  S
C915       C1073   1.503       .  S
C916       C1497   1.490       .  S
C917        H918   1.109       .  S
C917        C923   1.535       .  S
C917        C922   1.550   1_545  S
C917        C921   1.533       .  S
C919        H920   1.100       .  S
C919        C925   1.552   1_545  S
C919        C924   1.539       .  S
C919        C926   1.542       .  S
C921        C924   1.373       .  D
C921       C1233   1.484       .  S
C922        C925   1.393       .  D
C922       C1545   1.506       .  S
C923        C926   1.373       .  D
C923       C1457   1.494       .  S
C924       C2425   1.512       .  S
C925       C1041   1.510       .  S
C926       C1025   1.473       .  S
C927        C928   1.509       .  S
C927        C933   1.544       .  S
C927        C931   1.529       .  S
C927       C1289   1.517       .  S
C928        C929   1.364       .  D
C928        H935   1.087       .  S
C929        C930   1.553       .  S
C929       C1013   1.486       .  S
C930        H936   1.110       .  S
C930        C934   1.555       .  S
C930        C932   1.539       .  S
C931        C932   1.352       .  D
C931        H937   1.088       .  S
C932       C1065   1.466       .  S
C933        C934   1.379       .  D
C933        H938   1.084       .  S
C934       C2921   1.496       .  S
C939        C940   1.528       .  S
C939        C945   1.548       .  S
C939        C943   1.540       .  S
C939       C1737   1.531       .  S
C940        C941   1.366       .  D
C940        H947   1.086       .  S
C941        C942   1.543       .  S
C941       C1020   1.472       .  S
C942        H948   1.111       .  S
C942        C946   1.534       .  S
C942        C944   1.542       .  S
C943        C944   1.369       .  D
C943        H949   1.084       .  S
C944       C2497   1.484       .  S
C945        C946   1.359       .  D
C945        H950   1.086       .  S
C946       C1049   1.482       .  S
C951        C952   1.545       .  S
C951        C957   1.545       .  S
C951        C955   1.531       .  S
C951       C2249   1.536       .  S
C952        C953   1.359       .  D
C952        H959   1.083       .  S
C953        C954   1.531       .  S
C953       C1033   1.483       .  S
C954        H960   1.111       .  S
C954        C958   1.541       .  S
C954        C956   1.561       .  S
C955        C956   1.370       .  D
C955        H961   1.086       .  S
C956       C1012   1.485       .  S
C957        C958   1.364       .  D
C957        H962   1.086       .  S
C958       C1081   1.487       .  S
C963        C964   1.539       .  S
C963        C969   1.531       .  S
C963        C967   1.540       .  S
C963       C3233   1.531       .  S
C964        C965   1.381       .  D
C964        H971   1.085       .  S
C965        C966   1.559       .  S
C965       C1006   1.491       .  S
C966        H972   1.110       .  S
C966        C970   1.535       .  S
C966        C968   1.535       .  S
C967        C968   1.361       .  D
C967        H973   1.085       .  S
C968       C1681   1.484       .  S
C969        C970   1.358       .  D
C969        H974   1.087       .  S
C970       C1105   1.483       .  S
C975        C976   1.528       .  S
C975        C981   1.531       .  S
C975        C979   1.541       .  S
C975       C2569   1.522       .  S
C976        C977   1.355       .  D
C976        H983   1.088       .  S
C977        C978   1.538       .  S
C977       C1097   1.478       .  S
C978        H984   1.111       .  S
C978        C982   1.539       .  S
C978        C980   1.549       .  S
C979        C980   1.381       .  D
C979        H985   1.084       .  S
C980       C1002   1.483       .  S
C981        C982   1.361       .  D
C981        H986   1.088       .  S
C982       C2553   1.468       .  S
C987        C988   1.536       .  S
C987        C993   1.541       .  S
C987        C991   1.533       .  S
C987       C2945   1.517       .  S
C988        C989   1.365       .  D
C988        H995   1.086       .  S
C989        C990   1.540       .  S
C989       C2889   1.486       .  S
C990        H996   1.109       .  S
C990        C994   1.535       .  S
C990        C992   1.551       .  S
C991        C992   1.367       .  D
C991        H997   1.084       .  S
C992       C1009   1.476       .  S
C993        C994   1.360       .  D
C993        H998   1.087       .  S
C994       C1721   1.487       .  S
O999      Ni1005   1.919   1_565  S
O999       C1020   1.268       .  A
O1000     Ni1023   1.926       .  S
O1000      C1009   1.275       .  A
O1001     Ni1005   1.893       .  S
O1001     Ni1023   1.903       .  S
O1001     Ni1017   1.917   1_545  S
O1001      H1024   0.966   1_545  S
C1002      O1019   1.283       .  A
C1002      O1011   1.277       .  A
O1003     Ni1022   1.930       .  S
O1003      C1009   1.270       .  A
O1004     Ni1022   1.922   1_565  S
O1004      C1006   1.271       .  A
Ni1005     O1008   1.906       .  S
Ni1005     O1010   1.901       .  S
C1006      O1016   1.272       .  A
O1007     Ni1023   1.949       .  S
O1007      C1013   1.283       .  A
O1008      C1013   1.278       .  A
O1010      C1012   1.266       .  A
O1011     Ni1022   1.924   1_565  S
C1012      O1018   1.280       .  A
H1014      O1015   0.966       .  S
O1015     Ni1023   1.924       .  S
O1015     Ni1017   1.908   1_545  S
O1015     Ni1022   1.905       .  S
O1016     Ni1017   1.936       .  S
Ni1017     O1021   1.926       .  S
Ni1017     O1019   1.941       .  S
O1018     Ni1023   1.954       .  S
C1020      O1021   1.273       .  A
C1025      C1026   1.398       .  A
C1025      C1030   1.406       .  A
C1026      C1027   1.394       .  A
C1026      H1035   1.083       .  S
C1027      C1028   1.403       .  A
C1027      H1036   1.084       .  S
C1028      C1034   1.395       .  A
C1028      C1029   1.412       .  A
C1029      C1031   1.408       .  A
C1029      C1030   1.404       .  A
C1030      H1037   1.084       .  S
C1031      C1032   1.403       .  A
C1031      H1038   1.084       .  S
C1032      C1033   1.401       .  A
C1032      H1039   1.083       .  S
C1033      C1034   1.408       .  A
C1034      H1040   1.085       .  S
C1041      C1042   1.407       .  A
C1041      C1046   1.416       .  A
C1042      C1043   1.403       .  A
C1042      H1051   1.082       .  S
C1043      C1044   1.405       .  A
C1043      H1052   1.083       .  S
C1044      C1050   1.404       .  A
C1044      C1045   1.407       .  A
C1045      C1047   1.405       .  A
C1045      C1046   1.398       .  A
C1046      H1053   1.076       .  S
C1047      C1048   1.396       .  A
C1047      H1054   1.084       .  S
C1048      C1049   1.400       .  A
C1048      H1055   1.083       .  S
C1049      C1050   1.411       .  A
C1050      H1056   1.084       .  S
C1057      C1058   1.411       .  A
C1057      C1062   1.412       .  A
C1058      C1059   1.381       .  A
C1058      H1067   1.064       .  S
C1059      C1060   1.385       .  A
C1059      H1068   1.085       .  S
C1060      C1066   1.396       .  A
C1060      C1061   1.416       .  A
C1061      C1063   1.402       .  A
C1061      C1062   1.411       .  A
C1062      H1069   1.083       .  S
C1063      C1064   1.400       .  A
C1063      H1070   1.083       .  S
C1064      C1065   1.409       .  A
C1064      H1071   1.083       .  S
C1065      C1066   1.390       .  A
C1066      H1072   1.086       .  S
C1073      C1074   1.411       .  A
C1073      C1078   1.409       .  A
C1074      C1075   1.394       .  A
C1074      H1083   1.077       .  S
C1075      C1076   1.397       .  A
C1075      H1084   1.084       .  S
C1076      C1082   1.404       .  A
C1076      C1077   1.413       .  A
C1077      C1079   1.402       .  A
C1077      C1078   1.408       .  A
C1078      H1085   1.084       .  S
C1079      C1080   1.399       .  A
C1079      H1086   1.084       .  S
C1080      C1081   1.406       .  A
C1080      H1087   1.078       .  S
C1081      C1082   1.404       .  A
C1082      H1088   1.084       .  S
C1089      C1090   1.401       .  A
C1089      C1094   1.405       .  A
C1090      C1091   1.398       .  A
C1090      H1099   1.083       .  S
C1091      C1092   1.405       .  A
C1091      H1100   1.083       .  S
C1092      C1098   1.399       .  A
C1092      C1093   1.411       .  A
C1093      C1095   1.406       .  A
C1093      C1094   1.399       .  A
C1094      H1101   1.077       .  S
C1095      C1096   1.399       .  A
C1095      H1102   1.083       .  S
C1096      C1097   1.400       .  A
C1096      H1103   1.083       .  S
C1097      C1098   1.409       .  A
C1098      H1104   1.085       .  S
C1105      C1106   1.405       .  A
C1105      C1110   1.404       .  A
C1106      C1107   1.400       .  A
C1106      H1115   1.081       .  S
C1107      C1108   1.404       .  A
C1107      H1116   1.084       .  S
C1108      C1114   1.404       .  A
C1108      C1109   1.410       .  A
C1109      C1111   1.396       .  A
C1109      C1110   1.396       .  A
C1110      H1117   1.084       .  S
C1111      C1112   1.391       .  A
C1111      H1118   1.084       .  S
C1112      C1113   1.410       .  A
C1112      H1119   1.075       .  S
C1113      C1114   1.411       .  A
C1114      H1120   1.084       .  S
C1121      C1122   1.401       .  A
C1121      C1126   1.399       .  A
C1122      C1123   1.401       .  A
C1122      H1131   1.083       .  S
C1123      C1124   1.406       .  A
C1123      H1132   1.084       .  S
C1124      C1130   1.401       .  A
C1124      C1125   1.410       .  A
C1125      C1127   1.402       .  A
C1125      C1126   1.396       .  A
C1126      H1133   1.074       .  S
C1127      C1128   1.394       .  A
C1127      H1134   1.079       .  S
C1128      C1129   1.399       .  A
C1128      H1135   1.083       .  S
C1129      C1130   1.412       .  A
C1130      H1136   1.084       .  S
C1137      C1138   1.406       .  A
C1137      C1142   1.404       .  A
C1138      C1139   1.399       .  A
C1138      H1147   1.084       .  S
C1139      C1140   1.402       .  A
C1139      H1148   1.084       .  S
C1140      C1146   1.412       .  A
C1140      C1141   1.416       .  A
C1141      C1143   1.401       .  A
C1141      C1142   1.410       .  A
C1142      H1149   1.084       .  S
C1143      C1144   1.398       .  A
C1143      H1150   1.084       .  S
C1144      C1145   1.408       .  A
C1144      H1151   1.083       .  S
C1145      C1146   1.407       .  A
C1146      H1152   1.084       .  S
C1153      C1154   1.401       .  A
C1153      C1158   1.411       .  A
C1154      C1155   1.401       .  A
C1154      H1163   1.083       .  S
C1155      C1156   1.406       .  A
C1155      H1164   1.083       .  S
C1156      C1162   1.404       .  A
C1156      C1157   1.409       .  A
C1157      C1159   1.408       .  A
C1157      C1158   1.406       .  A
C1158      H1165   1.083       .  S
C1159      C1160   1.404       .  A
C1159      H1166   1.084       .  S
C1160      C1161   1.402       .  A
C1160      H1167   1.083       .  S
C1161      C1162   1.414       .  A
C1162      H1168   1.084       .  S
C1169      C1170   1.407       .  A
C1169      C1174   1.410       .  A
C1170      C1171   1.399       .  A
C1170      H1179   1.079       .  S
C1171      C1172   1.403       .  A
C1171      H1180   1.084       .  S
C1172      C1178   1.395       .  A
C1172      C1173   1.405       .  A
C1173      C1175   1.402       .  A
C1173      C1174   1.385       .  A
C1174      H1181   1.074       .  S
C1175      C1176   1.388       .  A
C1175      H1182   1.084       .  S
C1176      C1177   1.399       .  A
C1176      H1183   1.082       .  S
C1177      C1178   1.409       .  A
C1178      H1184   1.083       .  S
C1185      C1186   1.401       .  A
C1185      C1190   1.411       .  A
C1186      C1187   1.408       .  A
C1186      H1195   1.083       .  S
C1187      C1188   1.410       .  A
C1187      H1196   1.083       .  S
C1188      C1194   1.409       .  A
C1188      C1189   1.411       .  A
C1189      C1191   1.403       .  A
C1189      C1190   1.397       .  A
C1190      H1197   1.085       .  S
C1191      C1192   1.395       .  A
C1191      H1198   1.084       .  S
C1192      C1193   1.399       .  A
C1192      H1199   1.083       .  S
C1193      C1194   1.410       .  A
C1194      H1200   1.084       .  S
C1201      C1202   1.400       .  A
C1201      C1206   1.408       .  A
C1202      C1203   1.391       .  A
C1202      H1211   1.083       .  S
C1203      C1204   1.400       .  A
C1203      H1212   1.084   1_556  S
C1204      C1210   1.393       .  A
C1204      C1205   1.408       .  A
C1205      C1207   1.401       .  A
C1205      C1206   1.400       .  A
C1206      H1213   1.084       .  S
C1207      C1208   1.399       .  A
C1207      H1214   1.084       .  S
C1208      C1209   1.409       .  A
C1208      H1215   1.080       .  S
C1209      C1210   1.410       .  A
C1210      H1216   1.076   1_556  S
C1217      C1218   1.397       .  A
C1217      C1222   1.413       .  A
C1218      C1219   1.394       .  A
C1218      H1227   1.083       .  S
C1219      C1220   1.406       .  A
C1219      H1228   1.083   1_655  S
C1220      C1226   1.395       .  A
C1220      C1221   1.407       .  A
C1221      C1223   1.410       .  A
C1221      C1222   1.410       .  A
C1222      H1229   1.084       .  S
C1223      C1224   1.410       .  A
C1223      H1230   1.083       .  S
C1224      C1225   1.407       .  A
C1224      H1231   1.082       .  S
C1225      C1226   1.414       .  A
C1226      H1232   1.074   1_655  S
C1233      C1234   1.402       .  A
C1233      C1238   1.410       .  A
C1234      C1235   1.390       .  A
C1234      H1243   1.083       .  S
C1235      C1236   1.400       .  A
C1235      H1244   1.084       .  S
C1236      C1242   1.393       .  A
C1236      C1237   1.410       .  A
C1237      C1239   1.408   1_545  A
C1237      C1238   1.410       .  A
C1238      H1245   1.084   1_545  S
C1239      C1240   1.407   1_565  A
C1239      H1246   1.083       .  S
C1240      C1241   1.408       .  A
C1240      H1247   1.081   1_545  S
C1241      C1242   1.410       .  A
C1242      H1248   1.083       .  S
C1249      C1250   1.407       .  A
C1249      C1254   1.414       .  A
C1250      C1251   1.404       .  A
C1250      H1259   1.083       .  S
C1251      C1252   1.405       .  A
C1251      H1260   1.083       .  S
C1252      C1258   1.415       .  A
C1252      C1253   1.412       .  A
C1253      C1255   1.407       .  A
C1253      C1254   1.417       .  A
C1254      H1261   1.079       .  S
C1255      C1256   1.406       .  A
C1255      H1262   1.084       .  S
C1256      C1257   1.406       .  A
C1256      H1263   1.083       .  S
C1257      C1258   1.414       .  A
C1258      H1264   1.081       .  S
C1265      C1266   1.415       .  A
C1265      C1270   1.414       .  A
C1266      C1267   1.399       .  A
C1266      H1275   1.079       .  S
C1267      C1268   1.397       .  A
C1267      H1276   1.084       .  S
C1268      C1274   1.409       .  A
C1268      C1269   1.409       .  A
C1269      C1271   1.399   1_554  A
C1269      C1270   1.407       .  A
C1270      H1277   1.078   1_554  S
C1271      C1272   1.397       .  A
C1271      H1278   1.084       .  S
C1272      C1273   1.413       .  A
C1272      H1279   1.082       .  S
C1273      C1274   1.412   1_556  A
C1274      H1280   1.083       .  S
C1281      C1282   1.407   1_545  A
C1281      C1286   1.400       .  A
C1282      C1283   1.390       .  A
C1282      H1291   1.083       .  S
C1283      C1284   1.395   1_565  A
C1283      H1292   1.084       .  S
C1284      C1290   1.399       .  A
C1284      C1285   1.416       .  A
C1285      C1287   1.396       .  A
C1285      C1286   1.400       .  A
C1286      H1293   1.084       .  S
C1287      C1288   1.392       .  A
C1287      H1294   1.084       .  S
C1288      C1289   1.413       .  A
C1288      H1295   1.083       .  S
C1289      C1290   1.401       .  A
C1290      H1296   1.082       .  S
C1297      C1298   1.403       .  A
C1297      C1302   1.416       .  A
C1298      C1299   1.401       .  A
C1298      H1307   1.082       .  S
C1299      C1300   1.406       .  A
C1299      H1308   1.083       .  S
C1300      C1306   1.399       .  A
C1300      C1301   1.407       .  A
C1301      C1303   1.407       .  A
C1301      C1302   1.397       .  A
C1302      H1309   1.082       .  S
C1303      C1304   1.399       .  A
C1303      H1310   1.084       .  S
C1304      C1305   1.399       .  A
C1304      H1311   1.083       .  S
C1305      C1306   1.406       .  A
C1306      H1312   1.077       .  S
C1313      C1314   1.403       .  A
C1313      C1318   1.393       .  A
C1314      C1315   1.404       .  A
C1314      H1323   1.082       .  S
C1315      C1316   1.407       .  A
C1315      H1324   1.083       .  S
C1316      C1322   1.406       .  A
C1316      C1317   1.413       .  A
C1317      C1319   1.389       .  A
C1317      C1318   1.386       .  A
C1318      H1325   1.086       .  S
C1319      C1320   1.380       .  A
C1319      H1326   1.084       .  S
C1320      C1321   1.405       .  A
C1320      H1327   1.072   1_565  S
C1321      C1322   1.407       .  A
C1322      H1328   1.084       .  S
C1329      C1330   1.401       .  A
C1329      C1334   1.415   1_556  A
C1330      C1331   1.391       .  A
C1330      H1339   1.084       .  S
C1331      C1332   1.401       .  A
C1331      H1340   1.084       .  S
C1332      C1338   1.395       .  A
C1332      C1333   1.409       .  A
C1333      C1335   1.413   1_556  A
C1333      C1334   1.417   1_556  A
C1334      H1341   1.083       .  S
C1335      C1336   1.415       .  A
C1335      H1342   1.083       .  S
C1336      C1337   1.406   1_554  A
C1336      H1343   1.081       .  S
C1337      C1338   1.415       .  A
C1338      H1344   1.085       .  S
C1345      C1346   1.418       .  A
C1345      C1350   1.405       .  A
C1346      C1347   1.385       .  A
C1346      H1355   1.083       .  S
C1347      C1348   1.390       .  A
C1347      H1356   1.084       .  S
C1348      C1354   1.400       .  A
C1348      C1349   1.418       .  A
C1349      C1351   1.401       .  A
C1349      C1350   1.415       .  A
C1350      H1357   1.084       .  S
C1351      C1352   1.401       .  A
C1351      H1358   1.083       .  S
C1352      C1353   1.408       .  A
C1352      H1359   1.078       .  S
C1353      C1354   1.394       .  A
C1354      H1360   1.085       .  S
C1361      C1362   1.400       .  A
C1361      C1366   1.409       .  A
C1362      C1363   1.393       .  A
C1362      H1371   1.083       .  S
C1363      C1364   1.403       .  A
C1363      H1372   1.083       .  S
C1364      C1370   1.392       .  A
C1364      C1365   1.408       .  A
C1365      C1367   1.403       .  A
C1365      C1366   1.397       .  A
C1366      H1373   1.084       .  S
C1367      C1368   1.398       .  A
C1367      H1374   1.084       .  S
C1368      C1369   1.405       .  A
C1368      H1375   1.081       .  S
C1369      C1370   1.408       .  A
C1370      H1376   1.078       .  S
C1377      C1378   1.400       .  A
C1377      C1382   1.416       .  A
C1378      C1379   1.404       .  A
C1378      H1387   1.083       .  S
C1379      C1380   1.408       .  A
C1379      H1388   1.080       .  S
C1380      C1386   1.405       .  A
C1380      C1381   1.407       .  A
C1381      C1383   1.405       .  A
C1381      C1382   1.399       .  A
C1382      H1389   1.084       .  S
C1383      C1384   1.399       .  A
C1383      H1390   1.084       .  S
C1384      C1385   1.401       .  A
C1384      H1391   1.083       .  S
C1385      C1386   1.410       .  A
C1386      H1392   1.076       .  S
C1393      C1394   1.401       .  A
C1393      C1398   1.406       .  A
C1394      C1395   1.399       .  A
C1394      H1403   1.083       .  S
C1395      C1396   1.405       .  A
C1395      H1404   1.084       .  S
C1396      C1402   1.401       .  A
C1396      C1397   1.409       .  A
C1397      C1399   1.405       .  A
C1397      C1398   1.403       .  A
C1398      H1405   1.078       .  S
C1399      C1400   1.400       .  A
C1399      H1406   1.081       .  S
C1400      C1401   1.403       .  A
C1400      H1407   1.083       .  S
C1401      C1402   1.414       .  A
C1402      H1408   1.083       .  S
C1409      C1410   1.408       .  A
C1409      C1414   1.409       .  A
C1410      C1411   1.405       .  A
C1410      H1419   1.083       .  S
C1411      C1412   1.404       .  A
C1411      H1420   1.083       .  S
C1412      C1418   1.418       .  A
C1412      C1413   1.414       .  A
C1413      C1415   1.402       .  A
C1413      C1414   1.414       .  A
C1414      H1421   1.079       .  S
C1415      C1416   1.400       .  A
C1415      H1422   1.084       .  S
C1416      C1417   1.408       .  A
C1416      H1423   1.083       .  S
C1417      C1418   1.412       .  A
C1418      H1424   1.083       .  S
C1425      C1426   1.406       .  A
C1425      C1430   1.405       .  A
C1426      C1427   1.403       .  A
C1426      H1435   1.083       .  S
C1427      C1428   1.405       .  A
C1427      H1436   1.083       .  S
C1428      C1434   1.412       .  A
C1428      C1429   1.412       .  A
C1429      C1431   1.401       .  A
C1429      C1430   1.405       .  A
C1430      H1437   1.077       .  S
C1431      C1432   1.396       .  A
C1431      H1438   1.084       .  S
C1432      C1433   1.405       .  A
C1432      H1439   1.083       .  S
C1433      C1434   1.410       .  A
C1434      H1440   1.082       .  S
C1441      C1442   1.402       .  A
C1441      C1446   1.411       .  A
C1442      C1443   1.398       .  A
C1442      H1451   1.083       .  S
C1443      C1444   1.405       .  A
C1443      H1452   1.084       .  S
C1444      C1450   1.403       .  A
C1444      C1445   1.410       .  A
C1445      C1447   1.404       .  A
C1445      C1446   1.406       .  A
C1446      H1453   1.084       .  S
C1447      C1448   1.401       .  A
C1447      H1454   1.083       .  S
C1448      C1449   1.408       .  A
C1448      H1455   1.082       .  S
C1449      C1450   1.413       .  A
C1450      H1456   1.078       .  S
C1457      C1458   1.404       .  A
C1457      C1462   1.406       .  A
C1458      C1459   1.402       .  A
C1458      H1467   1.081       .  S
C1459      C1460   1.406       .  A
C1459      H1468   1.083       .  S
C1460      C1466   1.401       .  A
C1460      C1461   1.408       .  A
C1461      C1463   1.403       .  A
C1461      C1462   1.393       .  A
C1462      H1469   1.072       .  S
C1463      C1464   1.394       .  A
C1463      H1470   1.082       .  S
C1464      C1465   1.401       .  A
C1464      H1471   1.083       .  S
C1465      C1466   1.411       .  A
C1466      H1472   1.084       .  S
C1473      C1474   1.403       .  A
C1473      C1478   1.411       .  A
C1474      C1475   1.405       .  A
C1474      H1483   1.083       .  S
C1475      C1476   1.408       .  A
C1475      H1484   1.083       .  S
C1476      C1482   1.404       .  A
C1476      C1477   1.410       .  A
C1477      C1479   1.402       .  A
C1477      C1478   1.392       .  A
C1478      H1485   1.084       .  S
C1479      C1480   1.393       .  A
C1479      H1486   1.084       .  S
C1480      C1481   1.398       .  A
C1480      H1487   1.083       .  S
C1481      C1482   1.407       .  A
C1482      H1488   1.079       .  S
C1489      C1490   1.415       .  A
C1489      C1494   1.409       .  A
C1490      C1491   1.392       .  A
C1490      H1499   1.074       .  S
C1491      C1492   1.394       .  A
C1491      H1500   1.084       .  S
C1492      C1498   1.402       .  A
C1492      C1493   1.412       .  A
C1493      C1495   1.398       .  A
C1493      C1494   1.405       .  A
C1494      H1501   1.085       .  S
C1495      C1496   1.396       .  A
C1495      H1502   1.084       .  S
C1496      C1497   1.409       .  A
C1496      H1503   1.083       .  S
C1497      C1498   1.401       .  A
C1498      H1504   1.082       .  S
C1505      C1506   1.406   1_554  A
C1505      C1510   1.395       .  A
C1506      C1507   1.401       .  A
C1506      H1515   1.083       .  S
C1507      C1508   1.403   1_556  A
C1507      H1516   1.083       .  S
C1508      C1514   1.413       .  A
C1508      C1509   1.417       .  A
C1509      C1511   1.390       .  A
C1509      C1510   1.397       .  A
C1510      H1517   1.085       .  S
C1511      C1512   1.384       .  A
C1511      H1518   1.084       .  S
C1512      C1513   1.415       .  A
C1512      H1519   1.083       .  S
C1513      C1514   1.408       .  A
C1514      H1520   1.082       .  S
C1521      C1522   1.409       .  A
C1521      C1526   1.412       .  A
C1522      C1523   1.391       .  A
C1522      H1531   1.079       .  S
C1523      C1524   1.397       .  A
C1523      H1532   1.084       .  S
C1524      C1530   1.396       .  A
C1524      C1525   1.410       .  A
C1525      C1527   1.404       .  A
C1525      C1526   1.405       .  A
C1526      H1533   1.082       .  S
C1527      C1528   1.403       .  A
C1527      H1534   1.083       .  S
C1528      C1529   1.412       .  A
C1528      H1535   1.083       .  S
C1529      C1530   1.407       .  A
C1530      H1536   1.083       .  S
C1537      C1538   1.417       .  A
C1537      C1542   1.416       .  A
C1538      C1539   1.389       .  A
C1538      H1547   1.082       .  S
C1539      C1540   1.392       .  A
C1539      H1548   1.084       .  S
C1540      C1546   1.403       .  A
C1540      C1541   1.413       .  A
C1541      C1543   1.407       .  A
C1541      C1542   1.425       .  A
C1542      H1549   1.082       .  S
C1543      C1544   1.411       .  A
C1543      H1550   1.083       .  S
C1544      C1545   1.414       .  A
C1544      H1551   1.081       .  S
C1545      C1546   1.404       .  A
C1546      H1552   1.085       .  S
C1553      C1554   1.408   1_565  A
C1553      C1558   1.418       .  A
C1554      C1555   1.417       .  A
C1554      H1563   1.082       .  S
C1555      C1556   1.414       .  A
C1555      H1564   1.083       .  S
C1556      C1562   1.423       .  A
C1556      C1557   1.409   1_545  A
C1557      C1559   1.403       .  A
C1557      C1558   1.402       .  A
C1558      H1565   1.084       .  S
C1559      C1560   1.395       .  A
C1559      H1566   1.084       .  S
C1560      C1561   1.402   1_565  A
C1560      H1567   1.083       .  S
C1561      C1562   1.418       .  A
C1562      H1568   1.083       .  S
C1569      C1570   1.417       .  A
C1569      C1574   1.414       .  A
C1570      C1571   1.405       .  A
C1570      H1579   1.081       .  S
C1571      C1572   1.401       .  A
C1571      H1580   1.083       .  S
C1572      C1578   1.419       .  A
C1572      C1573   1.412       .  A
C1573      C1575   1.398   1_554  A
C1573      C1574   1.413       .  A
C1574      H1581   1.084   1_554  S
C1575      C1576   1.397       .  A
C1575      H1582   1.084       .  S
C1576      C1577   1.412   1_556  A
C1576      H1583   1.082       .  S
C1577      C1578   1.414       .  A
C1578      H1584   1.083       .  S
C1585      C1586   1.405       .  A
C1585      C1590   1.398       .  A
C1586      C1587   1.393       .  A
C1586      H1595   1.069       .  S
C1587      C1588   1.395       .  A
C1587      H1596   1.084       .  S
C1588      C1594   1.408       .  A
C1588      C1589   1.418       .  A
C1589      C1591   1.394       .  A
C1589      C1590   1.407       .  A
C1590      H1597   1.084       .  S
C1591      C1592   1.393       .  A
C1591      H1598   1.084       .  S
C1592      C1593   1.415       .  A
C1592      H1599   1.082       .  S
C1593      C1594   1.401       .  A
C1594      H1600   1.084       .  S
C1601      C1602   1.405       .  A
C1601      C1606   1.409       .  A
C1602      C1603   1.405       .  A
C1602      H1611   1.083       .  S
C1603      C1604   1.408       .  A
C1603      H1612   1.083       .  S
C1604      C1610   1.399       .  A
C1604      C1605   1.407       .  A
C1605      C1607   1.405       .  A
C1605      C1606   1.386       .  A
C1606      H1613   1.075   1_556  S
C1607      C1608   1.391       .  A
C1607      H1614   1.084   1_556  S
C1608      C1609   1.394       .  A
C1608      H1615   1.083       .  S
C1609      C1610   1.409       .  A
C1610      H1616   1.084       .  S
C1617      C1618   1.412       .  A
C1617      C1622   1.417       .  A
C1618      C1619   1.398       .  A
C1618      H1627   1.077       .  S
C1619      C1620   1.401       .  A
C1619      H1628   1.084       .  S
C1620      C1626   1.406       .  A
C1620      C1621   1.408       .  A
C1621      C1623   1.406       .  A
C1621      C1622   1.412       .  A
C1622      H1629   1.083       .  S
C1623      C1624   1.405       .  A
C1623      H1630   1.083       .  S
C1624      C1625   1.409       .  A
C1624      H1631   1.081       .  S
C1625      C1626   1.414       .  A
C1626      H1632   1.082       .  S
C1633      C1634   1.401       .  A
C1633      C1638   1.409       .  A
C1634      C1635   1.402       .  A
C1634      H1643   1.083       .  S
C1635      C1636   1.406       .  A
C1635      H1644   1.084       .  S
C1636      C1642   1.405       .  A
C1636      C1637   1.412       .  A
C1637      C1639   1.405       .  A
C1637      C1638   1.403       .  A
C1638      H1645   1.080       .  S
C1639      C1640   1.399       .  A
C1639      H1646   1.084       .  S
C1640      C1641   1.400       .  A
C1640      H1647   1.083       .  S
C1641      C1642   1.406       .  A
C1642      H1648   1.082       .  S
C1649      C1650   1.408       .  A
C1649      C1654   1.407   1_545  A
C1650      C1651   1.394       .  A
C1650      H1659   1.074       .  S
C1651      C1652   1.396       .  A
C1651      H1660   1.084       .  S
C1652      C1658   1.407       .  A
C1652      C1653   1.413   1_545  A
C1653      C1655   1.396       .  A
C1653      C1654   1.407       .  A
C1654      H1661   1.083       .  S
C1655      C1656   1.396       .  A
C1655      H1662   1.084       .  S
C1656      C1657   1.415       .  A
C1656      H1663   1.079       .  S
C1657      C1658   1.408   1_565  A
C1658      H1664   1.084       .  S
C1665      C1666   1.403       .  A
C1665      C1670   1.414       .  A
C1666      C1667   1.384       .  A
C1666      H1675   1.084       .  S
C1667      C1668   1.396       .  A
C1667      H1676   1.084       .  S
C1668      C1674   1.384       .  A
C1668      C1669   1.403       .  A
C1669      C1671   1.406       .  A
C1669      C1670   1.411       .  A
C1670      H1677   1.084       .  S
C1671      C1672   1.412       .  A
C1671      H1678   1.083       .  S
C1672      C1673   1.418       .  A
C1672      H1679   1.076       .  S
C1673      C1674   1.406       .  A
C1674      H1680   1.070       .  S
C1681      C1682   1.400       .  A
C1681      C1686   1.412       .  A
C1682      C1683   1.399       .  A
C1682      H1691   1.083       .  S
C1683      C1684   1.406       .  A
C1683      H1692   1.084       .  S
C1684      C1690   1.397       .  A
C1684      C1685   1.408       .  A
C1685      C1687   1.405       .  A
C1685      C1686   1.396       .  A
C1686      H1693   1.083       .  S
C1687      C1688   1.398       .  A
C1687      H1694   1.084       .  S
C1688      C1689   1.400       .  A
C1688      H1695   1.083       .  S
C1689      C1690   1.407       .  A
C1690      H1696   1.076       .  S
C1697      C1698   1.406       .  A
C1697      C1702   1.405       .  A
C1698      C1699   1.408       .  A
C1698      H1707   1.083       .  S
C1699      C1700   1.408       .  A
C1699      H1708   1.083       .  S
C1700      C1706   1.412       .  A
C1700      C1701   1.409       .  A
C1701      C1703   1.401       .  A
C1701      C1702   1.398       .  A
C1702      H1709   1.071       .  S
C1703      C1704   1.393       .  A
C1703      H1710   1.083       .  S
C1704      C1705   1.402       .  A
C1704      H1711   1.083       .  S
C1705      C1706   1.412       .  A
C1706      H1712   1.081       .  S
C1713      C1714   1.406       .  A
C1713      C1718   1.410       .  A
C1714      C1715   1.405       .  A
C1714      H1723   1.083       .  S
C1715      C1716   1.408       .  A
C1715      H1724   1.083       .  S
C1716      C1722   1.406       .  A
C1716      C1717   1.408       .  A
C1717      C1719   1.404       .  A
C1717      C1718   1.398       .  A
C1718      H1725   1.077       .  S
C1719      C1720   1.396       .  A
C1719      H1726   1.084       .  S
C1720      C1721   1.401       .  A
C1720      H1727   1.083       .  S
C1721      C1722   1.414       .  A
C1722      H1728   1.084       .  S
C1729      C1730   1.412       .  A
C1729      C1734   1.417       .  A
C1730      C1731   1.403       .  A
C1730      H1739   1.078       .  S
C1731      C1732   1.401       .  A
C1731      H1740   1.083       .  S
C1732      C1738   1.404       .  A
C1732      C1733   1.406       .  A
C1733      C1735   1.399       .  A
C1733      C1734   1.397       .  A
C1734      H1741   1.075       .  S
C1735      C1736   1.394       .  A
C1735      H1742   1.084       .  S
C1736      C1737   1.410       .  A
C1736      H1743   1.083       .  S
C1737      C1738   1.413       .  A
C1738      H1744   1.083       .  S
C1745      C1746   1.406       .  A
C1745      C1750   1.408       .  A
C1746      C1747   1.405       .  A
C1746      H1755   1.083       .  S
C1747      C1748   1.407       .  A
C1747      H1756   1.083       .  S
C1748      C1754   1.402       .  A
C1748      C1749   1.408       .  A
C1749      C1751   1.404       .  A
C1749      C1750   1.390       .  A
C1750      H1757   1.074       .  S
C1751      C1752   1.391       .  A
C1751      H1758   1.083       .  S
C1752      C1753   1.397       .  A
C1752      H1759   1.084       .  S
C1753      C1754   1.406       .  A
C1754      H1760   1.084       .  S
C1761      C1762   1.405       .  A
C1761      C1766   1.407       .  A
C1762      C1763   1.403       .  A
C1762      H1771   1.083       .  S
C1763      C1764   1.405       .  A
C1763      H1772   1.083       .  S
C1764      C1770   1.412       .  A
C1764      C1765   1.414       .  A
C1765      C1767   1.400       .  A
C1765      C1766   1.404       .  A
C1766      H1773   1.082       .  S
C1767      C1768   1.395       .  A
C1767      H1774   1.084       .  S
C1768      C1769   1.405       .  A
C1768      H1775   1.083       .  S
C1769      C1770   1.407       .  A
C1770      H1776   1.081       .  S
C1777      C1778   1.403       .  A
C1777      C1782   1.404       .  A
C1778      C1779   1.397       .  A
C1778      H1787   1.083       .  S
C1779      C1780   1.403       .  A
C1779      H1788   1.084       .  S
C1780      C1786   1.399       .  A
C1780      C1781   1.412       .  A
C1781      C1783   1.404       .  A
C1781      C1782   1.403       .  A
C1782      H1789   1.078       .  S
C1783      C1784   1.400       .  A
C1783      H1790   1.084       .  S
C1784      C1785   1.405       .  A
C1784      H1791   1.083       .  S
C1785      C1786   1.407       .  A
C1786      H1792   1.079       .  S
C1793      C1794   1.401       .  A
C1793      C1798   1.404       .  A
C1794      C1795   1.402       .  A
C1794      H1803   1.083       .  S
C1795      C1796   1.408       .  A
C1795      H1804   1.083       .  S
C1796      C1802   1.395       .  A
C1796      C1797   1.407       .  A
C1797      C1799   1.405       .  A
C1797      C1798   1.388       .  A
C1798      H1805   1.070       .  S
C1799      C1800   1.393       .  A
C1799      H1806   1.081       .  S
C1800      C1801   1.396       .  A
C1800      H1807   1.084       .  S
C1801      C1802   1.408       .  A
C1802      H1808   1.084       .  S
C1809      C1810   1.415       .  A
C1809      C1814   1.417       .  A
C1810      C1811   1.399       .  A
C1810      H1819   1.083       .  S
C1811      C1812   1.399       .  A
C1811      H1820   1.083       .  S
C1812      C1818   1.411       .  A
C1812      C1813   1.408       .  A
C1813      C1815   1.400       .  A
C1813      C1814   1.416       .  A
C1814      H1821   1.083       .  S
C1815      C1816   1.404       .  A
C1815      H1822   1.083       .  S
C1816      C1817   1.415       .  A
C1816      H1823   1.082       .  S
C1817      C1818   1.416       .  A
C1818      H1824   1.079       .  S
C1825      C1826   1.411       .  A
C1825      C1830   1.391       .  A
C1826      C1827   1.393       .  A
C1826      H1835   1.078       .  S
C1827      C1828   1.396       .  A
C1827      H1836   1.084       .  S
C1828      C1834   1.405       .  A
C1828      C1829   1.415       .  A
C1829      C1831   1.386       .  A
C1829      C1830   1.396       .  A
C1830      H1837   1.085       .  S
C1831      C1832   1.383       .  A
C1831      H1838   1.084       .  S
C1832      C1833   1.411       .  A
C1832      H1839   1.070       .  S
C1833      C1834   1.405       .  A
C1834      H1840   1.083       .  S
C1841      C1842   1.406       .  A
C1841      C1846   1.393       .  A
C1842      C1843   1.402       .  A
C1842      H1851   1.083       .  S
C1843      C1844   1.403       .  A
C1843      H1852   1.083       .  S
C1844      C1850   1.412       .  A
C1844      C1845   1.416       .  A
C1845      C1847   1.386       .  A
C1845      C1846   1.394       .  A
C1846      H1853   1.085       .  S
C1847      C1848   1.381       .  A
C1847      H1854   1.085       .  S
C1848      C1849   1.419       .  A
C1848      H1855   1.079       .  S
C1849      C1850   1.410       .  A
C1850      H1856   1.083       .  S
C1857      C1858   1.404       .  A
C1857      C1862   1.401       .  A
C1858      C1859   1.396       .  A
C1858      H1867   1.083       .  S
C1859      C1860   1.402       .  A
C1859      H1868   1.084       .  S
C1860      C1866   1.401       .  A
C1860      C1861   1.414       .  A
C1861      C1863   1.401       .  A
C1861      C1862   1.401       .  A
C1862      H1869   1.081       .  S
C1863      C1864   1.395       .  A
C1863      H1870   1.084       .  S
C1864      C1865   1.404       .  A
C1864      H1871   1.084       .  S
C1865      C1866   1.408       .  A
C1866      H1872   1.082       .  S
C1873      C1874   1.405       .  A
C1873      C1878   1.406       .  A
C1874      C1875   1.391       .  A
C1874      H1883   1.082       .  S
C1875      C1876   1.399       .  A
C1875      H1884   1.084       .  S
C1876      C1882   1.391       .  A
C1876      C1877   1.411       .  A
C1877      C1879   1.403       .  A
C1877      C1878   1.396       .  A
C1878      H1885   1.084       .  S
C1879      C1880   1.398       .  A
C1879      H1886   1.084       .  S
C1880      C1881   1.408       .  A
C1880      H1887   1.083       .  S
C1881      C1882   1.406       .  A
C1882      H1888   1.082       .  S
C1889      C1890   1.401       .  A
C1889      C1894   1.404       .  A
C1890      C1891   1.398       .  A
C1890      H1899   1.083       .  S
C1891      C1892   1.405       .  A
C1891      H1900   1.084       .  S
C1892      C1898   1.396       .  A
C1892      C1893   1.409       .  A
C1893      C1895   1.405       .  A
C1893      C1894   1.392       .  A
C1894      H1901   1.074       .  S
C1895      C1896   1.395       .  A
C1895      H1902   1.082       .  S
C1896      C1897   1.398       .  A
C1896      H1903   1.083       .  S
C1897      C1898   1.406       .  A
C1898      H1904   1.084       .  S
C1905      C1906   1.406       .  A
C1905      C1910   1.405       .  A
C1906      C1907   1.400       .  A
C1906      H1915   1.081       .  S
C1907      C1908   1.404       .  A
C1907      H1916   1.083       .  S
C1908      C1914   1.403       .  A
C1908      C1909   1.411       .  A
C1909      C1911   1.397       .  A
C1909      C1910   1.393       .  A
C1910      H1917   1.084       .  S
C1911      C1912   1.388       .  A
C1911      H1918   1.084       .  S
C1912      C1913   1.408       .  A
C1912      H1919   1.080       .  S
C1913      C1914   1.408       .  A
C1914      H1920   1.084       .  S
C1921      C1922   1.406       .  A
C1921      C1926   1.414       .  A
C1922      C1923   1.397       .  A
C1922      H1931   1.080       .  S
C1923      C1924   1.402       .  A
C1923      H1932   1.084       .  S
C1924      C1930   1.398       .  A
C1924      C1925   1.408       .  A
C1925      C1927   1.408       .  A
C1925      C1926   1.402       .  A
C1926      H1933   1.078       .  S
C1927      C1928   1.402       .  A
C1927      H1934   1.084       .  S
C1928      C1929   1.400       .  A
C1928      H1935   1.083       .  S
C1929      C1930   1.409       .  A
C1930      H1936   1.085       .  S
C1937      C1938   1.400       .  A
C1937      C1942   1.405       .  A
C1938      C1939   1.403       .  A
C1938      H1947   1.083       .  S
C1939      C1940   1.408       .  A
C1939      H1948   1.083       .  S
C1940      C1946   1.400       .  A
C1940      C1941   1.408       .  A
C1941      C1943   1.406       .  A
C1941      C1942   1.395       .  A
C1942      H1949   1.069       .  S
C1943      C1944   1.397       .  A
C1943      H1950   1.082       .  S
C1944      C1945   1.399       .  A
C1944      H1951   1.083       .  S
C1945      C1946   1.411       .  A
C1946      H1952   1.084       .  S
C1953      C1954   1.418       .  A
C1953      C1958   1.421       .  A
C1954      C1955   1.406       .  A
C1954      H1963   1.079       .  S
C1955      C1956   1.401       .  A
C1955      H1964   1.083       .  S
C1956      C1962   1.422       .  A
C1956      C1957   1.409       .  A
C1957      C1959   1.401       .  A
C1957      C1958   1.421       .  A
C1958      H1965   1.079       .  S
C1959      C1960   1.405       .  A
C1959      H1966   1.084       .  S
C1960      C1961   1.418       .  A
C1960      H1967   1.080       .  S
C1961      C1962   1.422       .  A
C1962      H1968   1.084       .  S
C1969      C1970   1.403       .  A
C1969      C1974   1.402       .  A
C1970      C1971   1.400       .  A
C1970      H1979   1.082       .  S
C1971      C1972   1.405       .  A
C1971      H1980   1.083       .  S
C1972      C1978   1.403       .  A
C1972      C1973   1.411       .  A
C1973      C1975   1.396       .  A
C1973      C1974   1.394       .  A
C1974      H1981   1.085       .  S
C1975      C1976   1.390       .  A
C1975      H1982   1.084       .  S
C1976      C1977   1.411       .  A
C1976      H1983   1.078       .  S
C1977      C1978   1.410       .  A
C1978      H1984   1.084       .  S
C1985      C1986   1.403       .  A
C1985      C1990   1.400       .  A
C1986      C1987   1.401       .  A
C1986      H1995   1.083       .  S
C1987      C1988   1.406       .  A
C1987      H1996   1.083       .  S
C1988      C1994   1.395       .  A
C1988      C1989   1.408       .  A
C1989      C1991   1.403       .  A
C1989      C1990   1.386       .  A
C1990      H1997   1.070       .  S
C1991      C1992   1.390       .  A
C1991      H1998   1.081       .  S
C1992      C1993   1.395       .  A
C1992      H1999   1.084       .  S
C1993      C1994   1.406       .  A
C1994      H2000   1.084       .  S
C2001      C2002   1.407       .  A
C2001      C2006   1.397   1_554  A
C2002      C2003   1.405       .  A
C2002      H2011   1.083       .  S
C2003      C2004   1.405   1_554  A
C2003      H2012   1.083       .  S
C2004      C2010   1.418       .  A
C2004      C2005   1.415       .  A
C2005      C2007   1.389       .  A
C2005      C2006   1.401       .  A
C2006      H2013   1.084       .  S
C2007      C2008   1.386       .  A
C2007      H2014   1.084       .  S
C2008      C2009   1.419       .  A
C2008      H2015   1.079       .  S
C2009      C2010   1.414       .  A
C2010      H2016   1.083       .  S
C2017      C2018   1.398       .  A
C2017      C2022   1.408       .  A
C2018      C2019   1.393       .  A
C2018      H2027   1.083       .  S
C2019      C2020   1.403       .  A
C2019      H2028   1.084       .  S
C2020      C2026   1.394       .  A
C2020      C2021   1.411       .  A
C2021      C2023   1.408       .  A
C2021      C2022   1.405       .  A
C2022      H2029   1.084       .  S
C2023      C2024   1.405       .  A
C2023      H2030   1.083       .  S
C2024      C2025   1.401       .  A
C2024      H2031   1.083       .  S
C2025      C2026   1.411       .  A
C2026      H2032   1.084       .  S
C2033      C2034   1.411       .  A
C2033      C2038   1.409       .  A
C2034      C2035   1.394       .  A
C2034      H2043   1.078       .  S
C2035      C2036   1.397       .  A
C2035      H2044   1.084       .  S
C2036      C2042   1.403       .  A
C2036      C2037   1.413       .  A
C2037      C2039   1.403       .  A
C2037      C2038   1.408       .  A
C2038      H2045   1.084       .  S
C2039      C2040   1.399       .  A
C2039      H2046   1.083       .  S
C2040      C2041   1.405       .  A
C2040      H2047   1.080       .  S
C2041      C2042   1.404       .  A
C2042      H2048   1.085       .  S
C2049      C2050   1.416       .  A
C2049      C2054   1.409       .  A
C2050      C2051   1.397       .  A
C2050      H2059   1.078       .  S
C2051      C2052   1.396       .  A
C2051      H2060   1.084       .  S
C2052      C2058   1.409       .  A
C2052      C2053   1.414       .  A
C2053      C2055   1.396       .  A
C2053      C2054   1.408       .  A
C2054      H2061   1.084       .  S
C2055      C2056   1.394       .  A
C2055      H2062   1.084       .  S
C2056      C2057   1.412       .  A
C2056      H2063   1.081       .  S
C2057      C2058   1.405       .  A
C2058      H2064   1.083       .  S
C2065      C2066   1.406       .  A
C2065      C2070   1.409       .  A
C2066      C2067   1.413       .  A
C2066      H2075   1.082       .  S
C2067      C2068   1.413       .  A
C2067      H2076   1.083       .  S
C2068      C2074   1.409       .  A
C2068      C2069   1.408       .  A
C2069      C2071   1.400       .  A
C2069      C2070   1.381       .  A
C2070      H2077   1.079       .  S
C2071      C2072   1.383       .  A
C2071      H2078   1.084       .  S
C2072      C2073   1.396       .  A
C2072      H2079   1.084       .  S
C2073      C2074   1.412       .  A
C2074      H2080   1.084       .  S
C2081      C2082   1.412       .  A
C2081      C2086   1.411       .  A
C2082      C2083   1.389       .  A
C2082      H2091   1.075       .  S
C2083      C2084   1.395       .  A
C2083      H2092   1.084       .  S
C2084      C2090   1.394       .  A
C2084      C2085   1.409   1_554  A
C2085      C2087   1.401       .  A
C2085      C2086   1.403   1_556  A
C2086      H2093   1.084   1_554  S
C2087      C2088   1.399       .  A
C2087      H2094   1.084       .  S
C2088      C2089   1.410       .  A
C2088      H2095   1.081       .  S
C2089      C2090   1.403   1_556  A
C2090      H2096   1.079       .  S
C2097      C2098   1.408   1_455  A
C2097      C2102   1.422       .  A
C2098      C2099   1.424       .  A
C2098      H2107   1.082       .  S
C2099      C2100   1.419       .  A
C2099      H2108   1.083       .  S
C2100      C2106   1.430       .  A
C2100      C2101   1.408   1_655  A
C2101      C2103   1.404       .  A
C2101      C2102   1.405       .  A
C2102      H2109   1.085       .  S
C2103      C2104   1.397       .  A
C2103      H2110   1.084       .  S
C2104      C2105   1.401       .  A
C2104      H2111   1.084       .  S
C2105      C2106   1.425   1_455  A
C2106      H2112   1.083       .  S
C2113      C2114   1.408       .  A
C2113      C2118   1.414       .  A
C2114      C2115   1.394       .  A
C2114      H2123   1.083       .  S
C2115      C2116   1.399       .  A
C2115      H2124   1.084       .  S
C2116      C2122   1.406       .  A
C2116      C2117   1.412       .  A
C2117      C2119   1.407       .  A
C2117      C2118   1.419       .  A
C2118      H2125   1.083       .  S
C2119      C2120   1.409       .  A
C2119      H2126   1.083       .  S
C2120      C2121   1.409       .  A
C2120      H2127   1.083       .  S
C2121      C2122   1.405       .  A
C2122      H2128   1.074       .  S
C2129      C2130   1.416       .  A
C2129      C2134   1.425   1_655  A
C2130      C2131   1.406       .  A
C2130      H2139   1.082       .  S
C2131      C2132   1.404   1_655  A
C2131      H2140   1.084       .  S
C2132      C2138   1.420       .  A
C2132      C2133   1.407       .  A
C2133      C2135   1.404       .  A
C2133      C2134   1.422       .  A
C2134      H2141   1.083       .  S
C2135      C2136   1.408       .  A
C2135      H2142   1.083       .  S
C2136      C2137   1.415       .  A
C2136      H2143   1.079       .  S
C2137      C2138   1.423       .  A
C2138      H2144   1.078   1_455  S
C2145      C2146   1.403       .  A
C2145      C2150   1.414       .  A
C2146      C2147   1.408       .  A
C2146      H2155   1.083       .  S
C2147      C2148   1.410       .  A
C2147      H2156   1.081       .  S
C2148      C2154   1.410       .  A
C2148      C2149   1.409       .  A
C2149      C2151   1.404       .  A
C2149      C2150   1.398       .  A
C2150      H2157   1.084       .  S
C2151      C2152   1.396       .  A
C2151      H2158   1.084       .  S
C2152      C2153   1.399       .  A
C2152      H2159   1.083       .  S
C2153      C2154   1.410       .  A
C2154      H2160   1.079       .  S
C2161      C2162   1.401       .  A
C2161      C2166   1.403       .  A
C2162      C2163   1.387       .  A
C2162      H2171   1.083       .  S
C2163      C2164   1.399       .  A
C2163      H2172   1.084       .  S
C2164      C2170   1.390       .  A
C2164      C2165   1.412       .  A
C2165      C2167   1.404       .  A
C2165      C2166   1.404       .  A
C2166      H2173   1.084       .  S
C2167      C2168   1.402       .  A
C2167      H2174   1.084       .  S
C2168      C2169   1.409       .  A
C2168      H2175   1.081       .  S
C2169      C2170   1.407       .  A
C2170      H2176   1.083       .  S
C2177      C2178   1.403       .  A
C2177      C2182   1.405   1_655  A
C2178      C2179   1.389       .  A
C2178      H2187   1.083       .  S
C2179      C2180   1.399       .  A
C2179      H2188   1.084       .  S
C2180      C2186   1.398       .  A
C2180      C2181   1.412       .  A
C2181      C2183   1.402   1_655  A
C2181      C2182   1.409   1_655  A
C2182      H2189   1.084       .  S
C2183      C2184   1.402       .  A
C2183      H2190   1.083       .  S
C2184      C2185   1.412   1_455  A
C2184      H2191   1.082       .  S
C2185      C2186   1.411       .  A
C2186      H2192   1.079       .  S
C2193      C2194   1.408       .  A
C2193      C2198   1.406       .  A
C2194      C2195   1.398   1_455  A
C2194      H2203   1.079   1_455  S
C2195      C2196   1.401   1_655  A
C2195      H2204   1.084       .  S
C2196      C2202   1.400   1_455  A
C2196      C2197   1.413       .  A
C2197      C2199   1.399       .  A
C2197      C2198   1.390       .  A
C2198      H2205   1.085       .  S
C2199      C2200   1.388       .  A
C2199      H2206   1.084       .  S
C2200      C2201   1.401       .  A
C2200      H2207   1.084       .  S
C2201      C2202   1.398   1_455  A
C2202      H2208   1.084       .  S
C2209      C2210   1.401       .  A
C2209      C2214   1.402       .  A
C2210      C2211   1.398       .  A
C2210      H2219   1.083       .  S
C2211      C2212   1.405       .  A
C2211      H2220   1.084   1_455  S
C2212      C2218   1.399       .  A
C2212      C2213   1.411       .  A
C2213      C2215   1.403       .  A
C2213      C2214   1.399       .  A
C2214      H2221   1.084       .  S
C2215      C2216   1.397       .  A
C2215      H2222   1.084       .  S
C2216      C2217   1.405       .  A
C2216      H2223   1.083       .  S
C2217      C2218   1.408       .  A
C2218      H2224   1.080   1_455  S
C2225      C2226   1.399       .  A
C2225      C2230   1.401       .  A
C2226      C2227   1.397       .  A
C2226      H2235   1.083       .  S
C2227      C2228   1.404       .  A
C2227      H2236   1.084       .  S
C2228      C2234   1.396       .  A
C2228      C2229   1.412       .  A
C2229      C2231   1.402       .  A
C2229      C2230   1.393       .  A
C2230      H2237   1.083       .  S
C2231      C2232   1.394       .  A
C2231      H2238   1.084       .  S
C2232      C2233   1.399       .  A
C2232      H2239   1.083       .  S
C2233      C2234   1.402       .  A
C2234      H2240   1.082       .  S
C2241      C2242   1.416       .  A
C2241      C2246   1.406       .  A
C2242      C2243   1.396       .  A
C2242      H2251   1.081       .  S
C2243      C2244   1.395       .  A
C2243      H2252   1.084       .  S
C2244      C2250   1.406       .  A
C2244      C2245   1.412       .  A
C2245      C2247   1.397       .  A
C2245      C2246   1.405       .  A
C2246      H2253   1.079       .  S
C2247      C2248   1.395       .  A
C2247      H2254   1.084       .  S
C2248      C2249   1.413       .  A
C2248      H2255   1.081       .  S
C2249      C2250   1.409       .  A
C2250      H2256   1.084       .  S
C2257      C2258   1.400       .  A
C2257      C2262   1.408       .  A
C2258      C2259   1.399       .  A
C2258      H2267   1.083       .  S
C2259      C2260   1.405       .  A
C2259      H2268   1.081       .  S
C2260      C2266   1.399       .  A
C2260      C2261   1.410       .  A
C2261      C2263   1.405       .  A
C2261      C2262   1.398       .  A
C2262      H2269   1.084       .  S
C2263      C2264   1.398       .  A
C2263      H2270   1.083       .  S
C2264      C2265   1.399       .  A
C2264      H2271   1.083       .  S
C2265      C2266   1.405       .  A
C2266      H2272   1.078       .  S
C2273      C2274   1.399       .  A
C2273      C2278   1.410       .  A
C2274      C2275   1.395       .  A
C2274      H2283   1.084       .  S
C2275      C2276   1.404       .  A
C2275      H2284   1.083       .  S
C2276      C2282   1.397       .  A
C2276      C2277   1.410       .  A
C2277      C2279   1.408       .  A
C2277      C2278   1.407       .  A
C2278      H2285   1.084       .  S
C2279      C2280   1.406       .  A
C2279      H2286   1.083       .  S
C2280      C2281   1.406       .  A
C2280      H2287   1.083       .  S
C2281      C2282   1.407       .  A
C2282      H2288   1.076       .  S
C2289      C2290   1.413       .  A
C2289      C2294   1.408       .  A
C2290      C2291   1.395       .  A
C2290      H2299   1.077       .  S
C2291      C2292   1.398       .  A
C2291      H2300   1.084       .  S
C2292      C2298   1.398       .  A
C2292      C2293   1.409       .  A
C2293      C2295   1.401       .  A
C2293      C2294   1.398       .  A
C2294      H2301   1.084       .  S
C2295      C2296   1.395       .  A
C2295      H2302   1.084       .  S
C2296      C2297   1.404       .  A
C2296      H2303   1.082       .  S
C2297      C2298   1.406       .  A
C2298      H2304   1.084       .  S
C2305      C2306   1.401       .  A
C2305      C2310   1.401       .  A
C2306      C2307   1.392       .  A
C2306      H2315   1.084       .  S
C2307      C2308   1.400       .  A
C2307      H2316   1.084       .  S
C2308      C2314   1.396       .  A
C2308      C2309   1.415       .  A
C2309      C2311   1.403       .  A
C2309      C2310   1.403       .  A
C2310      H2317   1.085       .  S
C2311      C2312   1.398       .  A
C2311      H2318   1.083       .  S
C2312      C2313   1.401       .  A
C2312      H2319   1.083       .  S
C2313      C2314   1.402       .  A
C2314      H2320   1.084       .  S
C2321      C2322   1.410       .  A
C2321      C2326   1.400       .  A
C2322      C2323   1.394       .  A
C2322      H2331   1.083       .  S
C2323      C2324   1.397       .  A
C2323      H2332   1.084       .  S
C2324      C2330   1.409       .  A
C2324      C2325   1.419       .  A
C2325      C2327   1.396   1_565  A
C2325      C2326   1.409       .  A
C2326      H2333   1.084       .  S
C2327      C2328   1.394       .  A
C2327      H2334   1.083       .  S
C2328      C2329   1.406   1_545  A
C2328      H2335   1.079       .  S
C2329      C2330   1.398       .  A
C2330      H2336   1.084       .  S
C2337      C2338   1.403       .  A
C2337      C2342   1.407       .  A
C2338      C2339   1.395       .  A
C2338      H2347   1.082       .  S
C2339      C2340   1.402       .  A
C2339      H2348   1.084       .  S
C2340      C2346   1.398       .  A
C2340      C2341   1.410       .  A
C2341      C2343   1.401       .  A
C2341      C2342   1.402       .  A
C2342      H2349   1.084       .  S
C2343      C2344   1.398       .  A
C2343      H2350   1.084       .  S
C2344      C2345   1.411       .  A
C2344      H2351   1.080       .  S
C2345      C2346   1.407       .  A
C2346      H2352   1.084       .  S
C2353      C2354   1.410       .  A
C2353      C2358   1.422       .  A
C2354      C2355   1.398       .  A
C2354      H2363   1.073       .  S
C2355      C2356   1.402       .  A
C2355      H2364   1.084       .  S
C2356      C2362   1.400       .  A
C2356      C2357   1.402       .  A
C2357      C2359   1.405       .  A
C2357      C2358   1.408       .  A
C2358      H2365   1.080       .  S
C2359      C2360   1.405       .  A
C2359      H2366   1.083       .  S
C2360      C2361   1.411       .  A
C2360      H2367   1.079       .  S
C2361      C2362   1.422       .  A
C2362      H2368   1.076       .  S
C2369      C2370   1.398       .  A
C2369      C2374   1.409   1_455  A
C2370      C2371   1.389       .  A
C2370      H2379   1.084       .  S
C2371      C2372   1.402       .  A
C2371      H2380   1.084       .  S
C2372      C2378   1.391       .  A
C2372      C2373   1.409       .  A
C2373      C2375   1.408   1_455  A
C2373      C2374   1.407   1_455  A
C2374      H2381   1.084       .  S
C2375      C2376   1.407       .  A
C2375      H2382   1.083       .  S
C2376      C2377   1.407   1_655  A
C2376      H2383   1.082       .  S
C2377      C2378   1.414       .  A
C2378      H2384   1.083       .  S
C2385      C2386   1.410   1_545  A
C2385      C2390   1.419       .  A
C2386      C2387   1.415       .  A
C2386      H2395   1.082       .  S
C2387      C2388   1.412   1_565  A
C2387      H2396   1.083       .  S
C2388      C2394   1.419   1_545  A
C2388      C2389   1.407       .  A
C2389      C2391   1.401       .  A
C2389      C2390   1.395       .  A
C2390      H2397   1.080       .  S
C2391      C2392   1.389       .  A
C2391      H2398   1.084       .  S
C2392      C2393   1.401       .  A
C2392      H2399   1.083       .  S
C2393      C2394   1.416   1_545  A
C2394      H2400   1.084       .  S
C2401      C2402   1.401       .  A
C2401      C2406   1.408       .  A
C2402      C2403   1.400       .  A
C2402      H2411   1.083       .  S
C2403      C2404   1.406       .  A
C2403      H2412   1.084       .  S
C2404      C2410   1.398       .  A
C2404      C2405   1.411       .  A
C2405      C2407   1.405       .  A
C2405      C2406   1.396       .  A
C2406      H2413   1.085       .  S
C2407      C2408   1.398       .  A
C2407      H2414   1.084       .  S
C2408      C2409   1.399       .  A
C2408      H2415   1.083       .  S
C2409      C2410   1.405       .  A
C2410      H2416   1.077       .  S
C2417      C2418   1.413       .  A
C2417      C2422   1.415   1_565  A
C2418      C2419   1.398       .  A
C2418      H2427   1.081       .  S
C2419      C2420   1.399   1_565  A
C2419      H2428   1.084       .  S
C2420      C2426   1.407       .  A
C2420      C2421   1.410       .  A
C2421      C2423   1.401       .  A
C2421      C2422   1.411       .  A
C2422      H2429   1.084       .  S
C2423      C2424   1.402       .  A
C2423      H2430   1.084       .  S
C2424      C2425   1.412       .  A
C2424      H2431   1.081       .  S
C2425      C2426   1.412       .  A
C2426      H2432   1.081   1_545  S
C2433      C2434   1.420       .  A
C2433      C2438   1.410       .  A
C2434      C2435   1.392       .  A
C2434      H2443   1.076       .  S
C2435      C2436   1.392       .  A
C2435      H2444   1.084       .  S
C2436      C2442   1.405       .  A
C2436      C2437   1.415       .  A
C2437      C2439   1.400       .  A
C2437      C2438   1.410       .  A
C2438      H2445   1.084       .  S
C2439      C2440   1.398       .  A
C2439      H2446   1.083       .  S
C2440      C2441   1.406       .  A
C2440      H2447   1.084       .  S
C2441      C2442   1.400       .  A
C2442      H2448   1.084       .  S
C2449      C2450   1.415       .  A
C2449      C2454   1.413       .  A
C2450      C2451   1.396       .  A
C2450      H2459   1.077       .  S
C2451      C2452   1.397       .  A
C2451      H2460   1.084       .  S
C2452      C2458   1.408       .  A
C2452      C2453   1.411       .  A
C2453      C2455   1.400   1_655  A
C2453      C2454   1.412       .  A
C2454      H2461   1.084       .  S
C2455      C2456   1.400       .  A
C2455      H2462   1.084       .  S
C2456      C2457   1.413       .  A
C2456      H2463   1.081       .  S
C2457      C2458   1.408   1_455  A
C2458      H2464   1.079       .  S
C2465      C2466   1.405       .  A
C2465      C2470   1.398       .  A
C2466      C2467   1.397       .  A
C2466      H2475   1.082       .  S
C2467      C2468   1.400       .  A
C2467      H2476   1.083       .  S
C2468      C2474   1.408       .  A
C2468      C2469   1.415       .  A
C2469      C2471   1.390       .  A
C2469      C2470   1.401       .  A
C2470      H2477   1.085       .  S
C2471      C2472   1.388       .  A
C2471      H2478   1.084       .  S
C2472      C2473   1.420       .  A
C2472      H2479   1.077       .  S
C2473      C2474   1.408       .  A
C2474      H2480   1.084       .  S
C2481      C2482   1.413       .  A
C2481      C2486   1.412       .  A
C2482      C2483   1.396       .  A
C2482      H2491   1.080       .  S
C2483      C2484   1.398       .  A
C2483      H2492   1.084       .  S
C2484      C2490   1.404       .  A
C2484      C2485   1.411       .  A
C2485      C2487   1.398       .  A
C2485      C2486   1.406       .  A
C2486      H2493   1.084       .  S
C2487      C2488   1.397       .  A
C2487      H2494   1.084       .  S
C2488      C2489   1.412       .  A
C2488      H2495   1.081       .  S
C2489      C2490   1.407       .  A
C2490      H2496   1.081       .  S
C2497      C2498   1.405       .  A
C2497      C2502   1.408       .  A
C2498      C2499   1.395       .  A
C2498      H2507   1.083       .  S
C2499      C2500   1.401       .  A
C2499      H2508   1.084       .  S
C2500      C2506   1.397       .  A
C2500      C2501   1.407       .  A
C2501      C2503   1.400       .  A
C2501      C2502   1.400       .  A
C2502      H2509   1.081       .  S
C2503      C2504   1.398       .  A
C2503      H2510   1.084       .  S
C2504      C2505   1.411       .  A
C2504      H2511   1.070       .  S
C2505      C2506   1.411       .  A
C2506      H2512   1.080       .  S
C2513      C2514   1.406       .  A
C2513      C2518   1.406       .  A
C2514      C2515   1.402       .  A
C2514      H2523   1.081       .  S
C2515      C2516   1.405       .  A
C2515      H2524   1.083       .  S
C2516      C2522   1.402       .  A
C2516      C2517   1.409       .  A
C2517      C2519   1.403       .  A
C2517      C2518   1.392       .  A
C2518      H2525   1.075       .  S
C2519      C2520   1.392       .  A
C2519      H2526   1.083       .  S
C2520      C2521   1.397       .  A
C2520      H2527   1.084       .  S
C2521      C2522   1.406       .  A
C2522      H2528   1.085       .  S
C2529      C2530   1.401       .  A
C2529      C2534   1.409       .  A
C2530      C2531   1.400       .  A
C2530      H2539   1.083       .  S
C2531      C2532   1.405       .  A
C2531      H2540   1.084       .  S
C2532      C2538   1.401       .  A
C2532      C2533   1.410       .  A
C2533      C2535   1.405       .  A
C2533      C2534   1.400       .  A
C2534      H2541   1.079       .  S
C2535      C2536   1.399       .  A
C2535      H2542   1.084       .  S
C2536      C2537   1.403       .  A
C2536      H2543   1.083       .  S
C2537      C2538   1.406       .  A
C2538      H2544   1.077       .  S
C2545      C2546   1.400       .  A
C2545      C2550   1.403       .  A
C2546      C2547   1.399       .  A
C2546      H2555   1.083       .  S
C2547      C2548   1.405       .  A
C2547      H2556   1.084       .  S
C2548      C2554   1.399       .  A
C2548      C2549   1.411       .  A
C2549      C2551   1.404       .  A
C2549      C2550   1.396       .  A
C2550      H2557   1.077       .  S
C2551      C2552   1.396       .  A
C2551      H2558   1.084       .  S
C2552      C2553   1.401       .  A
C2552      H2559   1.083       .  S
C2553      C2554   1.405       .  A
C2554      H2560   1.083       .  S
C2561      C2562   1.406       .  A
C2561      C2566   1.396   1_545  A
C2562      C2563   1.404       .  A
C2562      H2571   1.083       .  S
C2563      C2564   1.405   1_545  A
C2563      H2572   1.083       .  S
C2564      C2570   1.413       .  A
C2564      C2565   1.416       .  A
C2565      C2567   1.391       .  A
C2565      C2566   1.395       .  A
C2566      H2573   1.086       .  S
C2567      C2568   1.384       .  A
C2567      H2574   1.084       .  S
C2568      C2569   1.413       .  A
C2568      H2575   1.084       .  S
C2569      C2570   1.410       .  A
C2570      H2576   1.082   1_565  S
C2577      C2578   1.415       .  A
C2577      C2582   1.413       .  A
C2578      C2579   1.402       .  A
C2578      H2587   1.081       .  S
C2579      C2580   1.401       .  A
C2579      H2588   1.083       .  S
C2580      C2586   1.415       .  A
C2580      C2581   1.410       .  A
C2581      C2583   1.395       .  A
C2581      C2582   1.411       .  A
C2582      H2589   1.084       .  S
C2583      C2584   1.397       .  A
C2583      H2590   1.084   1_545  S
C2584      C2585   1.417       .  A
C2584      H2591   1.079   1_545  S
C2585      C2586   1.414       .  A
C2586      H2592   1.072       .  S
C2593      C2594   1.397       .  A
C2593      C2598   1.411       .  A
C2594      C2595   1.398       .  A
C2594      H2603   1.083       .  S
C2595      C2596   1.407       .  A
C2595      H2604   1.082       .  S
C2596      C2602   1.392       .  A
C2596      C2597   1.407       .  A
C2597      C2599   1.407       .  A
C2597      C2598   1.393       .  A
C2598      H2605   1.085       .  S
C2599      C2600   1.400       .  A
C2599      H2606   1.084       .  S
C2600      C2601   1.398       .  A
C2600      H2607   1.083       .  S
C2601      C2602   1.405       .  A
C2602      H2608   1.074       .  S
C2609      C2610   1.401       .  A
C2609      C2614   1.401       .  A
C2610      C2611   1.398       .  A
C2610      H2619   1.083       .  S
C2611      C2612   1.405       .  A
C2611      H2620   1.083       .  S
C2612      C2618   1.396       .  A
C2612      C2613   1.412       .  A
C2613      C2615   1.403       .  A
C2613      C2614   1.390       .  A
C2614      H2621   1.076   1_565  S
C2615      C2616   1.393       .  A
C2615      H2622   1.084   1_565  S
C2616      C2617   1.398       .  A
C2616      H2623   1.084       .  S
C2617      C2618   1.403       .  A
C2618      H2624   1.085       .  S
C2625      C2626   1.414       .  A
C2625      C2630   1.416       .  A
C2626      C2627   1.392       .  A
C2626      H2635   1.075       .  S
C2627      C2628   1.395       .  A
C2627      H2636   1.084       .  S
C2628      C2634   1.402       .  A
C2628      C2629   1.410       .  A
C2629      C2631   1.406       .  A
C2629      C2630   1.413       .  A
C2630      H2637   1.083       .  S
C2631      C2632   1.405       .  A
C2631      H2638   1.083       .  S
C2632      C2633   1.408       .  A
C2632      H2639   1.082       .  S
C2633      C2634   1.405       .  A
C2634      H2640   1.084       .  S
C2641      C2642   1.402       .  A
C2641      C2646   1.403       .  A
C2642      C2643   1.392       .  A
C2642      H2651   1.084       .  S
C2643      C2644   1.401       .  A
C2643      H2652   1.084       .  S
C2644      C2650   1.396       .  A
C2644      C2645   1.413       .  A
C2645      C2647   1.403       .  A
C2645      C2646   1.403       .  A
C2646      H2653   1.083       .  S
C2647      C2648   1.399       .  A
C2647      H2654   1.084       .  S
C2648      C2649   1.403       .  A
C2648      H2655   1.083       .  S
C2649      C2650   1.403       .  A
C2650      H2656   1.076       .  S
C2657      C2658   1.416       .  A
C2657      C2662   1.416       .  A
C2658      C2659   1.393       .  A
C2658      H2667   1.074       .  S
C2659      C2660   1.394       .  A
C2659      H2668   1.084       .  S
C2660      C2666   1.403       .  A
C2660      C2661   1.411       .  A
C2661      C2663   1.404   1_455  A
C2661      C2662   1.413       .  A
C2662      H2669   1.084       .  S
C2663      C2664   1.404       .  A
C2663      H2670   1.083       .  S
C2664      C2665   1.409   1_655  A
C2664      H2671   1.083       .  S
C2665      C2666   1.404       .  A
C2666      H2672   1.083       .  S
C2673      C2674   1.418       .  A
C2673      C2678   1.415       .  A
C2674      C2675   1.392       .  A
C2674      H2683   1.074       .  S
C2675      C2676   1.393       .  A
C2675      H2684   1.084       .  S
C2676      C2682   1.404       .  A
C2676      C2677   1.411   1_655  A
C2677      C2679   1.402       .  A
C2677      C2678   1.414   1_455  A
C2678      H2685   1.084   1_655  S
C2679      C2680   1.403       .  A
C2679      H2686   1.083       .  S
C2680      C2681   1.410       .  A
C2680      H2687   1.082       .  S
C2681      C2682   1.405   1_455  A
C2682      H2688   1.083       .  S
C2689      C2690   1.401       .  A
C2689      C2694   1.411       .  A
C2690      C2691   1.399       .  A
C2690      H2699   1.083       .  S
C2691      C2692   1.406       .  A
C2691      H2700   1.082       .  S
C2692      C2698   1.400       .  A
C2692      C2693   1.409       .  A
C2693      C2695   1.405       .  A
C2693      C2694   1.399       .  A
C2694      H2701   1.084       .  S
C2695      C2696   1.400       .  A
C2695      H2702   1.084       .  S
C2696      C2697   1.400       .  A
C2696      H2703   1.083       .  S
C2697      C2698   1.406       .  A
C2698      H2704   1.079       .  S
C2705      C2706   1.399       .  A
C2705      C2710   1.408       .  A
C2706      C2707   1.400       .  A
C2706      H2715   1.083       .  S
C2707      C2708   1.406       .  A
C2707      H2716   1.083       .  S
C2708      C2714   1.400       .  A
C2708      C2709   1.410       .  A
C2709      C2711   1.407       .  A
C2709      C2710   1.402       .  A
C2710      H2717   1.078       .  S
C2711      C2712   1.402       .  A
C2711      H2718   1.083       .  S
C2712      C2713   1.402       .  A
C2712      H2719   1.083       .  S
C2713      C2714   1.411       .  A
C2714      H2720   1.084       .  S
C2721      C2722   1.407       .  A
C2721      C2726   1.407       .  A
C2722      C2723   1.401       .  A
C2722      H2731   1.083       .  S
C2723      C2724   1.402       .  A
C2723      H2732   1.084       .  S
C2724      C2730   1.409       .  A
C2724      C2725   1.413       .  A
C2725      C2727   1.402       .  A
C2725      C2726   1.405       .  A
C2726      H2733   1.077       .  S
C2727      C2728   1.396       .  A
C2727      H2734   1.084       .  S
C2728      C2729   1.404       .  A
C2728      H2735   1.083       .  S
C2729      C2730   1.406       .  A
C2730      H2736   1.083       .  S
C2737      C2738   1.406       .  A
C2737      C2742   1.403       .  A
C2738      C2739   1.400       .  A
C2738      H2747   1.083       .  S
C2739      C2740   1.402       .  A
C2739      H2748   1.084       .  S
C2740      C2746   1.408       .  A
C2740      C2741   1.414       .  A
C2741      C2743   1.400       .  A
C2741      C2742   1.402       .  A
C2742      H2749   1.076       .  S
C2743      C2744   1.394       .  A
C2743      H2750   1.084       .  S
C2744      C2745   1.405       .  A
C2744      H2751   1.083       .  S
C2745      C2746   1.405       .  A
C2746      H2752   1.084       .  S
C2753      C2754   1.400       .  A
C2753      C2758   1.408       .  A
C2754      C2755   1.387       .  A
C2754      H2763   1.084       .  S
C2755      C2756   1.399       .  A
C2755      H2764   1.084       .  S
C2756      C2762   1.391       .  A
C2756      C2757   1.410       .  A
C2757      C2759   1.406       .  A
C2757      C2758   1.409       .  A
C2758      H2765   1.084       .  S
C2759      C2760   1.406       .  A
C2759      H2766   1.083       .  S
C2760      C2761   1.409       .  A
C2760      H2767   1.082       .  S
C2761      C2762   1.410       .  A
C2762      H2768   1.081       .  S
C2769      C2770   1.404       .  A
C2769      C2774   1.407       .  A
C2770      C2771   1.389       .  A
C2770      H2779   1.083       .  S
C2771      C2772   1.399       .  A
C2771      H2780   1.084       .  S
C2772      C2778   1.398       .  A
C2772      C2773   1.412       .  A
C2773      C2775   1.404       .  A
C2773      C2774   1.412       .  A
C2774      H2781   1.084       .  S
C2775      C2776   1.405       .  A
C2775      H2782   1.083       .  S
C2776      C2777   1.411       .  A
C2776      H2783   1.082       .  S
C2777      C2778   1.412       .  A
C2778      H2784   1.080       .  S
C2785      C2786   1.399       .  A
C2785      C2790   1.403       .  A
C2786      C2787   1.400       .  A
C2786      H2795   1.083       .  S
C2787      C2788   1.407       .  A
C2787      H2796   1.083       .  S
C2788      C2794   1.395       .  A
C2788      C2789   1.408       .  A
C2789      C2791   1.404       .  A
C2789      C2790   1.389       .  A
C2790      H2797   1.073       .  S
C2791      C2792   1.394       .  A
C2791      H2798   1.081       .  S
C2792      C2793   1.396       .  A
C2792      H2799   1.083       .  S
C2793      C2794   1.410       .  A
C2794      H2800   1.085       .  S
C2801      C2802   1.403       .  A
C2801      C2806   1.404       .  A
C2802      C2803   1.399       .  A
C2802      H2811   1.083       .  S
C2803      C2804   1.405       .  A
C2803      H2812   1.083       .  S
C2804      C2810   1.398       .  A
C2804      C2805   1.409       .  A
C2805      C2807   1.404       .  A
C2805      C2806   1.394       .  A
C2806      H2813   1.073       .  S
C2807      C2808   1.395       .  A
C2807      H2814   1.081       .  S
C2808      C2809   1.398       .  A
C2808      H2815   1.084       .  S
C2809      C2810   1.407       .  A
C2810      H2816   1.084       .  S
C2817      C2818   1.404       .  A
C2817      C2822   1.407       .  A
C2818      C2819   1.402       .  A
C2818      H2827   1.080       .  S
C2819      C2820   1.405       .  A
C2819      H2828   1.083       .  S
C2820      C2826   1.406       .  A
C2820      C2821   1.410       .  A
C2821      C2823   1.397       .  A
C2821      C2822   1.397       .  A
C2822      H2829   1.084       .  S
C2823      C2824   1.391       .  A
C2823      H2830   1.084       .  S
C2824      C2825   1.412       .  A
C2824      H2831   1.077       .  S
C2825      C2826   1.411       .  A
C2826      H2832   1.084       .  S
C2833      C2834   1.408       .  A
C2833      C2838   1.413       .  A
C2834      C2835   1.388       .  A
C2834      H2843   1.070       .  S
C2835      C2836   1.394       .  A
C2835      H2844   1.084       .  S
C2836      C2842   1.396       .  A
C2836      C2837   1.411       .  A
C2837      C2839   1.406       .  A
C2837      C2838   1.410       .  A
C2838      H2845   1.084       .  S
C2839      C2840   1.404       .  A
C2839      H2846   1.083       .  S
C2840      C2841   1.407       .  A
C2840      H2847   1.082       .  S
C2841      C2842   1.404       .  A
C2842      H2848   1.084       .  S
C2849      C2850   1.405       .  A
C2849      C2854   1.410       .  A
C2850      C2851   1.408       .  A
C2850      H2859   1.082       .  S
C2851      C2852   1.410       .  A
C2851      H2860   1.083       .  S
C2852      C2858   1.405       .  A
C2852      C2853   1.409       .  A
C2853      C2855   1.400       .  A
C2853      C2854   1.384       .  A
C2854      H2861   1.085       .  S
C2855      C2856   1.386       .  A
C2855      H2862   1.084       .  S
C2856      C2857   1.397       .  A
C2856      H2863   1.084       .  S
C2857      C2858   1.407       .  A
C2858      H2864   1.084       .  S
C2865      C2866   1.410       .  A
C2865      C2870   1.407       .  A
C2866      C2867   1.396       .  A
C2866      H2875   1.082       .  S
C2867      C2868   1.398       .  A
C2867      H2876   1.084       .  S
C2868      C2874   1.403       .  A
C2868      C2869   1.412       .  A
C2869      C2871   1.398       .  A
C2869      C2870   1.400       .  A
C2870      H2877   1.081       .  S
C2871      C2872   1.394       .  A
C2871      H2878   1.084       .  S
C2872      C2873   1.411       .  A
C2872      H2879   1.081       .  S
C2873      C2874   1.409       .  A
C2874      H2880   1.085       .  S
C2881      C2882   1.401       .  A
C2881      C2886   1.404       .  A
C2882      C2883   1.399       .  A
C2882      H2891   1.083       .  S
C2883      C2884   1.405       .  A
C2883      H2892   1.084       .  S
C2884      C2890   1.398       .  A
C2884      C2885   1.408       .  A
C2885      C2887   1.402       .  A
C2885      C2886   1.395       .  A
C2886      H2893   1.075       .  S
C2887      C2888   1.395       .  A
C2887      H2894   1.081       .  S
C2888      C2889   1.402       .  A
C2888      H2895   1.083       .  S
C2889      C2890   1.414       .  A
C2890      H2896   1.083       .  S
C2897      C2898   1.405       .  A
C2897      C2902   1.404       .  A
C2898      C2899   1.399       .  A
C2898      H2907   1.082       .  S
C2899      C2900   1.404       .  A
C2899      H2908   1.084       .  S
C2900      C2906   1.397       .  A
C2900      C2901   1.410       .  A
C2901      C2903   1.403       .  A
C2901      C2902   1.388       .  A
C2902      H2909   1.077       .  S
C2903      C2904   1.390       .  A
C2903      H2910   1.084       .  S
C2904      C2905   1.397       .  A
C2904      H2911   1.084       .  S
C2905      C2906   1.403       .  A
C2906      H2912   1.084       .  S
C2913      C2914   1.403       .  A
C2913      C2918   1.411       .  A
C2914      C2915   1.391       .  A
C2914      H2923   1.084       .  S
C2915      C2916   1.399       .  A
C2915      H2924   1.084       .  S
C2916      C2922   1.397       .  A
C2916      C2917   1.411       .  A
C2917      C2919   1.405       .  A
C2917      C2918   1.407       .  A
C2918      H2925   1.083       .  S
C2919      C2920   1.403       .  A
C2919      H2926   1.083       .  S
C2920      C2921   1.408       .  A
C2920      H2927   1.083       .  S
C2921      C2922   1.406       .  A
C2922      H2928   1.079       .  S
C2929      C2930   1.401       .  A
C2929      C2934   1.406       .  A
C2930      C2931   1.393       .  A
C2930      H2939   1.083       .  S
C2931      C2932   1.401       .  A
C2931      H2940   1.084       .  S
C2932      C2938   1.397       .  A
C2932      C2933   1.412       .  A
C2933      C2935   1.405       .  A
C2933      C2934   1.405       .  A
C2934      H2941   1.083       .  S
C2935      C2936   1.402       .  A
C2935      H2942   1.084       .  S
C2936      C2937   1.402       .  A
C2936      H2943   1.083       .  S
C2937      C2938   1.403       .  A
C2938      H2944   1.079       .  S
C2945      C2946   1.407       .  A
C2945      C2950   1.408       .  A
C2946      C2947   1.403       .  A
C2946      H2955   1.080       .  S
C2947      C2948   1.406       .  A
C2947      H2956   1.083       .  S
C2948      C2954   1.404       .  A
C2948      C2949   1.411       .  A
C2949      C2951   1.400       .  A
C2949      C2950   1.389       .  A
C2950      H2957   1.085       .  S
C2951      C2952   1.388       .  A
C2951      H2958   1.084       .  S
C2952      C2953   1.400       .  A
C2952      H2959   1.084       .  S
C2953      C2954   1.404       .  A
C2954      H2960   1.084       .  S
C2961      C2962   1.416       .  A
C2961      C2966   1.420       .  A
C2962      C2963   1.403       .  A
C2962      H2971   1.075       .  S
C2963      C2964   1.399       .  A
C2963      H2972   1.084       .  S
C2964      C2970   1.413       .  A
C2964      C2965   1.407       .  A
C2965      C2967   1.402       .  A
C2965      C2966   1.411       .  A
C2966      H2973   1.076       .  S
C2967      C2968   1.401       .  A
C2967      H2974   1.084       .  S
C2968      C2969   1.412       .  A
C2968      H2975   1.081       .  S
C2969      C2970   1.418       .  A
C2970      H2976   1.084       .  S
C2977      C2978   1.412       .  A
C2977      C2982   1.397       .  A
C2978      C2979   1.406       .  A
C2978      H2987   1.082       .  S
C2979      C2980   1.404       .  A
C2979      H2988   1.083       .  S
C2980      C2986   1.422       .  A
C2980      C2981   1.416       .  A
C2981      C2983   1.390       .  A
C2981      C2982   1.406       .  A
C2982      H2989   1.085       .  S
C2983      C2984   1.388       .  A
C2983      H2990   1.084       .  S
C2984      C2985   1.419       .  A
C2984      H2991   1.082       .  S
C2985      C2986   1.412       .  A
C2986      H2992   1.083       .  S
C2993      C2994   1.409       .  A
C2993      C2998   1.415       .  A
C2994      C2995   1.387       .  A
C2994      H3003   1.082       .  S
C2995      C2996   1.394       .  A
C2995      H3004   1.084       .  S
C2996      C3002   1.396       .  A
C2996      C2997   1.412       .  A
C2997      C2999   1.408       .  A
C2997      C2998   1.417       .  A
C2998      H3005   1.083       .  S
C2999      C3000   1.410       .  A
C2999      H3006   1.083       .  S
C3000      C3001   1.411       .  A
C3000      H3007   1.081       .  S
C3001      C3002   1.400       .  A
C3002      H3008   1.082       .  S
C3009      C3010   1.397       .  A
C3009      C3014   1.410       .  A
C3010      C3011   1.386       .  A
C3010      H3019   1.084       .  S
C3011      C3012   1.399       .  A
C3011      H3020   1.080       .  S
C3012      C3018   1.387       .  A
C3012      C3013   1.410       .  A
C3013      C3015   1.408       .  A
C3013      C3014   1.404       .  A
C3014      H3021   1.084       .  S
C3015      C3016   1.406       .  A
C3015      H3022   1.083       .  S
C3016      C3017   1.404       .  A
C3016      H3023   1.083       .  S
C3017      C3018   1.400       .  A
C3018      H3024   1.072       .  S
C3025      C3026   1.401       .  A
C3025      C3030   1.417       .  A
C3026      C3027   1.399       .  A
C3026      H3035   1.082       .  S
C3027      C3028   1.406       .  A
C3027      H3036   1.082       .  S
C3028      C3034   1.396       .  A
C3028      C3029   1.405       .  A
C3029      C3031   1.407       .  A
C3029      C3030   1.399       .  A
C3030      H3037   1.083       .  S
C3031      C3032   1.401       .  A
C3031      H3038   1.083       .  S
C3032      C3033   1.404       .  A
C3032      H3039   1.082       .  S
C3033      C3034   1.414       .  A
C3034      H3040   1.077       .  S
C3041      C3042   1.409       .  A
C3041      C3046   1.410       .  A
C3042      C3043   1.400       .  A
C3042      H3051   1.083       .  S
C3043      C3044   1.403       .  A
C3043      H3052   1.083       .  S
C3044      C3050   1.402       .  A
C3044      C3045   1.410       .  A
C3045      C3047   1.400       .  A
C3045      C3046   1.394       .  A
C3046      H3053   1.075       .  S
C3047      C3048   1.390       .  A
C3047      H3054   1.084       .  S
C3048      C3049   1.405       .  A
C3048      H3055   1.080       .  S
C3049      C3050   1.408       .  A
C3050      H3056   1.083       .  S
C3057      C3058   1.398       .  A
C3057      C3062   1.421       .  A
C3058      C3059   1.390       .  A
C3058      H3067   1.084       .  S
C3059      C3060   1.401       .  A
C3059      H3068   1.084       .  S
C3060      C3066   1.392       .  A
C3060      C3061   1.407       .  A
C3061      C3063   1.418       .  A
C3061      C3062   1.422       .  A
C3062      H3069   1.083       .  S
C3063      C3064   1.421       .  A
C3063      H3070   1.083       .  S
C3064      C3065   1.407       .  A
C3064      H3071   1.082       .  S
C3065      C3066   1.417       .  A
C3066      H3072   1.085       .  S
C3073      C3074   1.396       .  A
C3073      C3078   1.406       .  A
C3074      C3075   1.389       .  A
C3074      H3083   1.084       .  S
C3075      C3076   1.402       .  A
C3075      H3084   1.081       .  S
C3076      C3082   1.386       .  A
C3076      C3077   1.409       .  A
C3077      C3079   1.407       .  A
C3077      C3078   1.399       .  A
C3078      H3085   1.084       .  S
C3079      C3080   1.403       .  A
C3079      H3086   1.083       .  S
C3080      C3081   1.402       .  A
C3080      H3087   1.083       .  S
C3081      C3082   1.401       .  A
C3082      H3088   1.073       .  S
C3089      C3090   1.399       .  A
C3089      C3094   1.413       .  A
C3090      C3091   1.399       .  A
C3090      H3099   1.083       .  S
C3091      C3092   1.406       .  A
C3091      H3100   1.083       .  S
C3092      C3098   1.399       .  A
C3092      C3093   1.409       .  A
C3093      C3095   1.409       .  A
C3093      C3094   1.405       .  A
C3094      H3101   1.084       .  S
C3095      C3096   1.405       .  A
C3095      H3102   1.083       .  S
C3096      C3097   1.401       .  A
C3096      H3103   1.083       .  S
C3097      C3098   1.404       .  A
C3098      H3104   1.070       .  S
C3105      C3106   1.410       .  A
C3105      C3110   1.409       .  A
C3106      C3107   1.408       .  A
C3106      H3115   1.082       .  S
C3107      C3108   1.407       .  A
C3107      H3116   1.083       .  S
C3108      C3114   1.417       .  A
C3108      C3109   1.410       .  A
C3109      C3111   1.396       .  A
C3109      C3110   1.404       .  A
C3110      H3117   1.083       .  S
C3111      C3112   1.393       .  A
C3111      H3118   1.084       .  S
C3112      C3113   1.414       .  A
C3112      H3119   1.075       .  S
C3113      C3114   1.417       .  A
C3114      H3120   1.083       .  S
C3121      C3122   1.404       .  A
C3121      C3126   1.400       .  A
C3122      C3123   1.396       .  A
C3122      H3131   1.083       .  S
C3123      C3124   1.402       .  A
C3123      H3132   1.084       .  S
C3124      C3130   1.401       .  A
C3124      C3125   1.415       .  A
C3125      C3127   1.400       .  A
C3125      C3126   1.400       .  A
C3126      H3133   1.082       .  S
C3127      C3128   1.395       .  A
C3127      H3134   1.084       .  S
C3128      C3129   1.403       .  A
C3128      H3135   1.083       .  S
C3129      C3130   1.404       .  A
C3130      H3136   1.083       .  S
C3137      C3138   1.400       .  A
C3137      C3142   1.416   1_554  A
C3138      C3139   1.389       .  A
C3138      H3147   1.084       .  S
C3139      C3140   1.402       .  A
C3139      H3148   1.084       .  S
C3140      C3146   1.395       .  A
C3140      C3141   1.407   1_554  A
C3141      C3143   1.412       .  A
C3141      C3142   1.418       .  A
C3142      H3149   1.084       .  S
C3143      C3144   1.415       .  A
C3143      H3150   1.083       .  S
C3144      C3145   1.409   1_556  A
C3144      H3151   1.082       .  S
C3145      C3146   1.419       .  A
C3146      H3152   1.081       .  S
C3153      C3154   1.413       .  A
C3153      C3158   1.411       .  A
C3154      C3155   1.393       .  A
C3154      H3163   1.082       .  S
C3155      C3156   1.396       .  A
C3155      H3164   1.084       .  S
C3156      C3162   1.402       .  A
C3156      C3157   1.409       .  A
C3157      C3159   1.397   1_556  A
C3157      C3158   1.408       .  A
C3158      H3165   1.084       .  S
C3159      C3160   1.399       .  A
C3159      H3166   1.084       .  S
C3160      C3161   1.417       .  A
C3160      H3167   1.078       .  S
C3161      C3162   1.411   1_554  A
C3162      H3168   1.077       .  S
C3169      C3170   1.408       .  A
C3169      C3174   1.392       .  A
C3170      C3171   1.405       .  A
C3170      H3179   1.082       .  S
C3171      C3172   1.405       .  A
C3171      H3180   1.083       .  S
C3172      C3178   1.416       .  A
C3172      C3173   1.415       .  A
C3173      C3175   1.387       .  A
C3173      C3174   1.397       .  A
C3174      H3181   1.085       .  S
C3175      C3176   1.383       .  A
C3175      H3182   1.084       .  S
C3176      C3177   1.418       .  A
C3176      H3183   1.075       .  S
C3177      C3178   1.411       .  A
C3178      H3184   1.083       .  S
C3185      C3186   1.400       .  A
C3185      C3190   1.409       .  A
C3186      C3187   1.395       .  A
C3186      H3195   1.084       .  S
C3187      C3188   1.403       .  A
C3187      H3196   1.084       .  S
C3188      C3194   1.400       .  A
C3188      C3189   1.411       .  A
C3189      C3191   1.406       .  A
C3189      C3190   1.409       .  A
C3190      H3197   1.084       .  S
C3191      C3192   1.405       .  A
C3191      H3198   1.083       .  S
C3192      C3193   1.406       .  A
C3192      H3199   1.082       .  S
C3193      C3194   1.413       .  A
C3194      H3200   1.083       .  S
C3201      C3202   1.407       .  A
C3201      C3206   1.415       .  A
C3202      C3203   1.406       .  A
C3202      H3211   1.081       .  S
C3203      C3204   1.407       .  A
C3203      H3212   1.083       .  S
C3204      C3210   1.405       .  A
C3204      C3205   1.406       .  A
C3205      C3207   1.405       .  A
C3205      C3206   1.394       .  A
C3206      H3213   1.075       .  S
C3207      C3208   1.394       .  A
C3207      H3214   1.083       .  S
C3208      C3209   1.399       .  A
C3208      H3215   1.083       .  S
C3209      C3210   1.413       .  A
C3210      H3216   1.084       .  S
C3217      C3218   1.406       .  A
C3217      C3222   1.408       .  A
C3218      C3219   1.395       .  A
C3218      H3227   1.082       .  S
C3219      C3220   1.401       .  A
C3219      H3228   1.084       .  S
C3220      C3226   1.397       .  A
C3220      C3221   1.409       .  A
C3221      C3223   1.403       .  A
C3221      C3222   1.399       .  A
C3222      H3229   1.079       .  S
C3223      C3224   1.397       .  A
C3223      H3230   1.083       .  S
C3224      C3225   1.403       .  A
C3224      H3231   1.083       .  S
C3225      C3226   1.408       .  A
C3226      H3232   1.084       .  S
C3233      C3234   1.409       .  A
C3233      C3238   1.418       .  A
C3234      C3235   1.409       .  A
C3234      H3243   1.082       .  S
C3235      C3236   1.409       .  A
C3235      H3244   1.083       .  S
C3236      C3242   1.411       .  A
C3236      C3237   1.408       .  A
C3237      C3239   1.404       .  A
C3237      C3238   1.395       .  A
C3238      H3245   1.079       .  S
C3239      C3240   1.392       .  A
C3239      H3246   1.084       .  S
C3240      C3241   1.399       .  A
C3240      H3247   1.083       .  S
C3241      C3242   1.412       .  A
C3242      H3248   1.084       .  S
C3249      C3250   1.413       .  A
C3249      C3254   1.411       .  A
C3250      C3251   1.397       .  A
C3250      H3259   1.078       .  S
C3251      C3252   1.399       .  A
C3251      H3260   1.084       .  S
C3252      C3258   1.406       .  A
C3252      C3253   1.411       .  A
C3253      C3255   1.399       .  A
C3253      C3254   1.406       .  A
C3254      H3261   1.084       .  S
C3255      C3256   1.397       .  A
C3255      H3262   1.084       .  S
C3256      C3257   1.411       .  A
C3256      H3263   1.081       .  S
C3257      C3258   1.409       .  A
C3258      H3264   1.081       .  S
C3265      C3266   1.401       .  A
C3265      C3270   1.405       .  A
C3266      C3267   1.401       .  A
C3266      H3275   1.083       .  S
C3267      C3268   1.406       .  A
C3267      H3276   1.083       .  S
C3268      C3274   1.401       .  A
C3268      C3269   1.410       .  A
C3269      C3271   1.404       .  A
C3269      C3270   1.397       .  A
C3270      H3277   1.076       .  S
C3271      C3272   1.397       .  A
C3271      H3278   1.082       .  S
C3272      C3273   1.400       .  A
C3272      H3279   1.083       .  S
C3273      C3274   1.409       .  A
C3274      H3280   1.084       .  S
C3281      C3282   1.417       .  A
C3281      C3286   1.413       .  A
C3282      C3283   1.384       .  A
C3282      H3291   1.069       .  S
C3283      C3284   1.385       .  A
C3283      H3292   1.085       .  S
C3284      C3290   1.403       .  A
C3284      C3285   1.417       .  A
C3285      C3287   1.403       .  A
C3285      C3286   1.420       .  A
C3286      H3293   1.083       .  S
C3287      C3288   1.404       .  A
C3287      H3294   1.083       .  S
C3288      C3289   1.408       .  A
C3288      H3295   1.082       .  S
C3289      C3290   1.392       .  A
C3290      H3296   1.085       .  S
C3297      C3298   1.402       .  A
C3297      C3302   1.412       .  A
C3298      C3299   1.402       .  A
C3298      H3307   1.082       .  S
C3299      C3300   1.407       .  A
C3299      H3308   1.083       .  S
C3300      C3306   1.405       .  A
C3300      C3301   1.409       .  A
C3301      C3303   1.404       .  A
C3301      C3302   1.404       .  A
C3302      H3309   1.084       .  S
C3303      C3304   1.401       .  A
C3303      H3310   1.084       .  S
C3304      C3305   1.409       .  A
C3304      H3311   1.080       .  S
C3305      C3306   1.414       .  A
C3306      H3312   1.084       .  S
C3313      C3314   1.404       .  A
C3313      C3318   1.410       .  A
C3314      C3315   1.403       .  A
C3314      H3323   1.083       .  S
C3315      C3316   1.406       .  A
C3315      H3324   1.083       .  S
C3316      C3322   1.408       .  A
C3316      C3317   1.412       .  A
C3317      C3319   1.403       .  A
C3317      C3318   1.403       .  A
C3318      H3325   1.082       .  S
C3319      C3320   1.398       .  A
C3319      H3326   1.084       .  S
C3320      C3321   1.403       .  A
C3320      H3327   1.083       .  S
C3321      C3322   1.407       .  A
C3322      H3328   1.078       .  S
