geometry optimzed in LAMMPS
_audit_creation_date              2020-11-30 
_audit_creation_method            'lammps2cif' 
_symmetry_space_group_name_H-M    'P1' 
_symmetry_Int_Tables_number       1 
_symmetry_cell_setting            triclinic 
loop_ 
_symmetry_equiv_pos_as_xyz 
  x,y,z 
_cell_length_a                    47.41673447 
_cell_length_b                    21.362429682153778 
_cell_length_c                    41.27787544323411 
_cell_angle_alpha                 88.67303016889575 
_cell_angle_beta                  89.97902112778355 
_cell_angle_gamma                 87.24969202882528 
loop_ 
_atom_site_label 
_atom_site_type_symbol 
_atom_site_fract_x 
_atom_site_fract_y 
_atom_site_fract_z 
_atom_site_charge 
In1        In  0.84338569  0.43890755  0.40168138     1.36900
C2          C  0.80522790  0.44271408  0.35412111     0.77300
O3          O  0.86667629  0.34515302  0.40548772    -0.61100
O4          O  0.82225390  0.34909063  0.41261141    -0.52000
C5          C  0.89102208  0.48589354  0.38008341     0.70000
O6          O  0.86711479  0.50076334  0.36812359    -0.46900
C7          C  0.83561639  0.50567760  0.45487355     0.74700
O8          O  0.83123762  0.43213692  0.34910187    -0.58800
O9          O  0.84106573  0.44752039  0.45593241    -0.48900
O10         O  0.79883180  0.45365660  0.38323691    -0.55200
C11         C  0.84468411  0.31551321  0.41055957     0.84900
O12         O  0.89074374  0.44661255  0.40336370    -0.57100
O13         O  0.83206527  0.52890360  0.42679756    -0.60400
In14       In  0.84618128  0.12529638  0.39919985     1.36900
C15         C  0.80834108  0.10963337  0.35246546     0.77300
O16         O  0.84060784  0.02922606  0.42093585    -0.61100
O17         O  0.83896055  0.10647913  0.45245807    -0.52000
C18         C  0.89925054  0.10369107  0.38031589     0.70000
O19         O  0.88781735  0.07157929  0.40229251    -0.46900
C20         C  0.84489749  0.24717452  0.41089618     0.74700
O21         O  0.83449132  0.10227080  0.34763661    -0.58800
O22         O  0.82275865  0.21746140  0.40826627    -0.48900
O23         O  0.80170820  0.12238018  0.38110859    -0.55200
C24         C  0.83797750  0.04793761  0.44954063     0.84900
O25         O  0.88318676  0.14578662  0.36723152    -0.57100
O26         O  0.86742042  0.21379432  0.41084497    -0.60400
In27       In  0.24928378  0.44925414  0.41686806     1.36900
C28         C  0.28660945  0.46135106  0.36931161     0.77300
O29         O  0.24988898  0.54475722  0.43884723    -0.61100
O30         O  0.25767367  0.46649751  0.47024272    -0.52000
C31         C  0.20013364  0.48280372  0.39022574     0.70000
O32         O  0.22317587  0.50327363  0.38044569    -0.46900
C33         C  0.24790666  0.32477881  0.42420919     0.74700
O34         O  0.26143564  0.44787005  0.36464684    -0.58800
O35         O  0.27063172  0.35207138  0.41953264    -0.48900
O36         O  0.29318885  0.46807310  0.39868111    -0.55200
C37         C  0.25437290  0.52524859  0.46736790     0.84900
O38         O  0.20201742  0.44723750  0.41501284    -0.57100
O39         O  0.22659417  0.36110726  0.42812728    -0.60400
In40       In  0.24158380  0.13518102  0.40915570     1.36900
C41         C  0.28241511  0.11623589  0.36535867     0.77300
O42         O  0.22252314  0.23029105  0.42237331    -0.61100
O43         O  0.26693621  0.22025331  0.41699811    -0.52000
C44         C  0.19166788  0.10727743  0.38381818     0.70000
O45         O  0.20378993  0.15717275  0.37684113    -0.46900
C46         C  0.24431578  0.06674808  0.46366575     0.74700
O47         O  0.25685394  0.12547276  0.35767366    -0.58800
O48         O  0.24002563  0.12545882  0.46331867    -0.48900
O49         O  0.28689122  0.11164090  0.39540406    -0.55200
C50         C  0.24580857  0.25657015  0.42202871     0.84900
O51         O  0.20504350  0.07172758  0.40380455    -0.57100
O52         O  0.24853838  0.04320016  0.43626539    -0.60400
C53         C  0.04594409  0.58479598  0.32685456    -0.02800
C54         C  0.04820517  0.96605706  0.31600950    -0.02800
In55       In  0.74440953  0.43455837  0.28213059     1.36900
C56         C  0.74423875  0.30958679  0.27568208     0.77300
O57         O  0.74123230  0.44956692  0.22767117    -0.61100
O58         O  0.75555922  0.52358317  0.25551271    -0.52000
C59         C  0.69454771  0.48619309  0.30022100     0.70000
O60         O  0.69721783  0.43123233  0.28971691    -0.46900
C61         C  0.78392105  0.44055809  0.32834704     0.74700
O62         O  0.72643812  0.34050759  0.29234811    -0.58800
O63         O  0.79001538  0.43635257  0.29874261    -0.48900
O64         O  0.76198207  0.34263315  0.26125718    -0.55200
C65         C  0.74888242  0.50529319  0.22797797     0.84900
O66         O  0.71728252  0.51418068  0.30149542    -0.57100
O67         O  0.75790307  0.44151924  0.33423800    -0.60400
In68       In  0.74756804  0.11487336  0.28065582     1.36900
C69         C  0.78707612  0.10721025  0.32683478     0.77300
O70         O  0.75623102  0.02374612  0.25514115    -0.61100
O71         O  0.74903216  0.10579210  0.22603076    -0.52000
C72         C  0.69904042  0.06698690  0.29862731     0.70000
O73         O  0.72270163  0.03905053  0.30367814    -0.46900
C74         C  0.74470782  0.24036162  0.27491535     0.74700
O75         O  0.76114905  0.11500585  0.33263999    -0.58800
O76         O  0.76378630  0.20713474  0.26120624    -0.48900
O77         O  0.79304165  0.10043450  0.29734300    -0.55200
C78         C  0.75332656  0.04701553  0.22704156     0.84900
O79         O  0.70016633  0.12002837  0.28468419    -0.57100
O80         O  0.72646820  0.20936812  0.28960793    -0.60400
C81         C  0.54386776  0.59424748  0.37797533    -0.02800
C82         C  0.55261898  0.97488037  0.37999627    -0.02800
In83       In  0.34496639  0.45139432  0.29580117     1.36900
C84         C  0.30672181  0.46504482  0.34250624     0.77300
O85         O  0.33614074  0.54834320  0.27328649    -0.61100
O86         O  0.34041703  0.47082624  0.24224303    -0.52000
C87         C  0.39532901  0.47148978  0.32029100     0.70000
O88         O  0.38876183  0.48655292  0.29141044    -0.46900
C89         C  0.34607790  0.32821333  0.28648312     0.74700
O90         O  0.33198296  0.47869761  0.34632401    -0.58800
O91         O  0.32355551  0.36167005  0.28674477    -0.48900
O92         O  0.30039594  0.45101811  0.31401784    -0.55200
C93         C  0.33683653  0.52933021  0.24457378     0.84900
O94         O  0.37614699  0.44607551  0.33627793    -0.57100
O95         O  0.36819193  0.35820013  0.28809409    -0.60400
In96       In  0.34639735  0.13550602  0.29831902     1.36900
C97         C  0.30526930  0.11692816  0.34139913     0.77300
O98         O  0.36868339  0.22592845  0.29035016    -0.61100
O99         O  0.32417047  0.22990297  0.28842874    -0.52000
C100        C  0.39702828  0.10233986  0.32269023     0.70000
O101        O  0.37690514  0.12489099  0.33945221    -0.46900
C102        C  0.34030608  0.06439490  0.24707527     0.74700
O103        O  0.33082587  0.11846341  0.34931413    -0.58800
O104        O  0.33948087  0.12340837  0.24526279    -0.48900
O105        O  0.30082859  0.12110857  0.31135301    -0.55200
C106        C  0.34636457  0.25966846  0.28753406     0.84900
O107        O  0.39113709  0.09574775  0.29317073    -0.57100
O108        O  0.34369053  0.04131284  0.27529097    -0.60400
In109      In  0.84917316  0.62137163  0.03493672     1.36900
C110        C  0.84971671  0.74395326  0.02192463     0.77300
O111        O  0.83688248  0.60285293  0.48166523    -0.61100
O112        O  0.83665060  0.52138394  0.51218308    -0.52000
C113        C  0.89872667  0.59518847  0.06369008     0.70000
O114        O  0.89243265  0.57207442  0.03689198    -0.46900
C115        C  0.80741232  0.60606196  0.07739547     0.74700
O116        O  0.87202085  0.70977113  0.02407338    -0.58800
O117        O  0.80338199  0.62740054  0.04904341    -0.48900
O118        O  0.82731354  0.71515895  0.02468472    -0.55200
C119        C  0.83574587  0.54416645  0.48369806     0.84900
O120        O  0.87954440  0.63066491  0.07557379    -0.57100
O121        O  0.83255404  0.58827558  0.08355596    -0.60400
In122      In  0.84886464  0.93475640  0.02954179     1.36900
C123        C  0.80911005  0.95102940  0.07440779     0.77300
O124        O  0.83969208  0.03042090  0.00699649    -0.61100
O125        O  0.83994847  0.94599226  0.47506817    -0.52000
C126        C  0.89806740  0.95901579  0.05544909     0.70000
O127        O  0.88998217  0.98319700  0.02867151    -0.46900
C128        C  0.84963841  0.81229361  0.01987417     0.74700
O129        O  0.83495545  0.95364142  0.08066510    -0.58800
O130        O  0.82714931  0.84583523  0.02074412    -0.48900
O131        O  0.80341653  0.94559611  0.04482339    -0.55200
C132        C  0.83597751  0.00458127  0.47742614     0.84900
O133        O  0.88120173  0.92198559  0.06827010    -0.57100
O134        O  0.87188308  0.84206601  0.02033899    -0.60400
In135      In  0.24443908  0.64438251  0.04162120     1.36900
C136        C  0.28268284  0.63451344  0.08930694     0.77300
O137        O  0.25601431  0.55073667  0.01931443    -0.61100
O138        O  0.24987588  0.62639089  0.49129595    -0.52000
C139        C  0.19337003  0.60631620  0.05459956     0.70000
O140        O  0.21510818  0.58737876  0.07027970    -0.46900
C141        C  0.24161271  0.76948767  0.03897075     0.74700
O142        O  0.25659609  0.63171895  0.09428882    -0.58800
O143        O  0.25964581  0.73760214  0.02301629    -0.48900
O144        O  0.28946761  0.63866542  0.05978484    -0.55200
C145        C  0.25350132  0.56775868  0.49494176     0.84900
O146        O  0.19776649  0.64493594  0.03176440    -0.57100
O147        O  0.22446711  0.73757775  0.05475056    -0.60400
In148      In  0.24173603  0.96174661  0.04781223     1.36900
C149        C  0.24112497  0.83813437  0.04064090     0.77300
O150        O  0.23881008  0.97088639  0.49365361    -0.61100
O151        O  0.24405348  0.05237614  0.52108449    -0.52000
C152        C  0.19057542  0.01137077  0.06171780     0.70000
O153        O  0.21145537  0.04411579  0.05594802    -0.46900
C154        C  0.28076439  0.96897334  0.09417976     0.74700
O155        O  0.22432784  0.86800083  0.05901817    -0.58800
O156        O  0.28665241  0.95695595  0.06524539    -0.48900
O157        O  0.25791480  0.87162664  0.02502711    -0.55200
C158        C  0.24282810  0.02881170  0.49350311     0.84900
O159        O  0.19593530  0.95309418  0.06056225    -0.57100
O160        O  0.25488798  0.97885972  0.09959799    -0.60400
C161        C  0.03561120  0.10596611  0.12999928    -0.02800
C162        C  0.05132980  0.48412883  0.13788217    -0.02800
In163      In  0.34270965  0.96148560  0.16401149     1.36900
C164        C  0.30247295  0.96910052  0.11934337     0.77300
O165        O  0.36299052  0.86667443  0.15589110    -0.61100
O166        O  0.32421272  0.87182904  0.18185667    -0.52000
C167        C  0.38884516  0.01201311  0.14100271     0.70000
O168        O  0.36436278  0.02806803  0.13114827    -0.46900
C169        C  0.33895482  0.02615733  0.21820009     0.74700
O170        O  0.32784522  0.95402419  0.11323066    -0.58800
O171        O  0.34617852  0.96861585  0.21827921    -0.48900
O172        O  0.29744141  0.98235542  0.14853154    -0.55200
C173        C  0.34337267  0.83757240  0.16912523     0.84900
O174        O  0.38979522  0.96970918  0.16291533    -0.57100
O175        O  0.33189043  0.04931586  0.19090197    -0.60400
In176      In  0.34134786  0.64533035  0.16333085     1.36900
C177        C  0.30336761  0.63596635  0.11580558     0.77300
O178        O  0.33569765  0.55130970  0.18749658    -0.61100
O179        O  0.33649477  0.63026409  0.21752056    -0.52000
C180        C  0.39358333  0.60461518  0.15030890     0.70000
O181        O  0.37252160  0.58851859  0.13434437    -0.46900
C182        C  0.34250594  0.76926454  0.16811170     0.74700
O183        O  0.32924119  0.64184966  0.11066041    -0.58800
O184        O  0.32337261  0.73839271  0.18124258    -0.48900
O185        O  0.29668489  0.63392254  0.14540055    -0.55200
C186        C  0.33567899  0.57155063  0.21590195     0.84900
O187        O  0.38775792  0.64116215  0.17317032    -0.57100
O188        O  0.36065790  0.73698130  0.15280138    -0.60400
C189        C  0.54148633  0.47267666  0.07691986    -0.02800
C190        C  0.54002432  0.09172132  0.06936224    -0.02800
In191      In  0.74397935  0.62065041  0.14574797     1.36900
C192        C  0.74399698  0.74570717  0.14970671     0.77300
O193        O  0.74622713  0.52578391  0.17086073    -0.61100
O194        O  0.75001951  0.60531733  0.19994301    -0.52000
C195        C  0.69364519  0.58062330  0.13076963     0.70000
O196        O  0.69621396  0.62955956  0.14692300    -0.46900
C197        C  0.78486377  0.60654814  0.10166312     0.74700
O198        O  0.72816525  0.71792889  0.13079307    -0.58800
O199        O  0.78919481  0.59575370  0.13141516    -0.48900
O200        O  0.75900164  0.70957927  0.16806498    -0.55200
C201        C  0.74875718  0.54646081  0.19889913     0.84900
O202        O  0.71656096  0.55501706  0.12122423    -0.57100
O203        O  0.75970147  0.62192665  0.09450471    -0.60400
In204      In  0.74774613  0.93994613  0.14492104     1.36900
C205        C  0.78750195  0.94986429  0.09968370     0.77300
O206        O  0.75487855  0.03096115  0.16980980    -0.61100
O207        O  0.75020869  0.94989893  0.19934590    -0.52000
C208        C  0.69780125  0.99057380  0.12798335     0.70000
O209        O  0.72069239  0.01223084  0.11847262    -0.46900
C210        C  0.74524571  0.81465809  0.14915978     0.74700
O211        O  0.76175415  0.94689631  0.09313342    -0.58800
O212        O  0.76240682  0.84409831  0.16576065    -0.48900
O213        O  0.79318807  0.94827639  0.12953659    -0.55200
C214        C  0.75327518  0.00822121  0.19805791     0.84900
O215        O  0.70040300  0.94271500  0.14644513    -0.57100
O216        O  0.72947909  0.84910796  0.13097985    -0.60400
C217        C  0.56821780  0.06515166  0.08429102    -0.05500
C218        C  0.57167249  0.99998729  0.09099374    -0.05400
C219        C  0.59720292  0.97299321  0.10245995    -0.23600
C220        C  0.62056017  0.00973340  0.10595266     0.18600
C221        C  0.61815630  0.07428841  0.09764256     0.15800
C222        C  0.59219074  0.10150719  0.08715223    -0.18600
C223        C  0.64199517  0.11042527  0.09919983    -0.20500
C224        C  0.66794511  0.08286539  0.10898728    -0.13000
C225        C  0.67030726  0.01912614  0.11804688     0.03700
C226        C  0.64652445  0.98273045  0.11668215    -0.25200
H227        H  0.55428621  0.96981489  0.08736909     0.08700
H228        H  0.59882279  0.92306912  0.10792275     0.12300
H229        H  0.59142783  0.15045523  0.07979113     0.12300
H230        H  0.64063090  0.15989744  0.09258038     0.12000
H231        H  0.68615331  0.11152187  0.10980800     0.12600
H232        H  0.64843481  0.93316298  0.12308639     0.14500
C233        C  0.66643944  0.55272212  0.12462446    -0.05500
C234        C  0.66589213  0.48734386  0.12257300    -0.05400
C235        C  0.64072311  0.45877232  0.11659575    -0.23600
C236        C  0.61570384  0.49523131  0.11169231     0.18600
C237        C  0.61590633  0.56112811  0.11349766     0.15800
C238        C  0.64127362  0.58964572  0.12067194    -0.18600
C239        C  0.59108054  0.59714813  0.10657954    -0.20500
C240        C  0.56671537  0.56822210  0.09678348    -0.13000
C241        C  0.56595834  0.50222532  0.09518344     0.03700
C242        C  0.59095412  0.46650261  0.10322140    -0.25200
H243        H  0.68503791  0.45811838  0.12585537     0.08700
H244        H  0.64096778  0.40816847  0.11508415     0.12300
H245        H  0.64168110  0.64022074  0.12195352     0.12300
H246        H  0.59087323  0.64784292  0.10719780     0.12000
H247        H  0.54863651  0.59770866  0.08905416     0.12600
H248        H  0.59236135  0.41638433  0.10008068     0.14500
C249        C  0.53923060  0.16419451  0.06479704    -0.05500
C250        C  0.53349635  0.19448511  0.03450168    -0.05400
C251        C  0.53351369  0.25939365  0.03093863    -0.23600
C252        C  0.53813589  0.29643522  0.05766158     0.18600
C253        C  0.54154780  0.26809326  0.08866400     0.15800
C254        C  0.54202332  0.20240753  0.09208508    -0.18600
C255        C  0.54400746  0.30609648  0.11564573    -0.20500
C256        C  0.54364402  0.37137370  0.11168615    -0.13000
C257        C  0.54252635  0.40021180  0.08050787     0.03700
C258        C  0.53881400  0.36155200  0.05371840    -0.25200
H259        H  0.52851022  0.16885821  0.01319079     0.08700
H260        H  0.52968932  0.28069159  0.00715967     0.12300
H261        H  0.54494913  0.18061020  0.11590391     0.12300
H262        H  0.54591031  0.28544281  0.13981600     0.12000
H263        H  0.54489725  0.39972486  0.13300455     0.12600
H264        H  0.53543909  0.38176667  0.02968160     0.14500
C265        C  0.42270128  0.58313288  0.14255062    -0.05500
C266        C  0.44546747  0.60122018  0.16138851    -0.05400
C267        C  0.47316565  0.58225552  0.15333103    -0.23600
C268        C  0.47849691  0.54518041  0.12619975     0.18600
C269        C  0.45557566  0.52617577  0.10752438     0.15800
C270        C  0.42791055  0.54517321  0.11577509    -0.18600
C271        C  0.46060377  0.48836962  0.08085941    -0.20500
C272        C  0.48811399  0.47102068  0.07210768    -0.13000
C273        C  0.51159502  0.49227237  0.08914637     0.03700
C274        C  0.50629590  0.52727762  0.11729790    -0.25200
H275        H  0.44187109  0.63039608  0.18223930     0.08700
H276        H  0.49039622  0.59715882  0.16807797     0.12300
H277        H  0.41045971  0.53083985  0.10115138     0.12300
H278        H  0.44326757  0.47260762  0.06654143     0.12000
H279        H  0.49116364  0.44238030  0.05099050     0.12600
H280        H  0.52345499  0.54054562  0.13251541     0.14500
C281        C  0.41421940  0.03953496  0.12721209    -0.05500
C282        C  0.41186996  0.07903916  0.09955710    -0.05400
C283        C  0.43596872  0.10033077  0.08430972    -0.23600
C284        C  0.46276632  0.08273332  0.09663361     0.18600
C285        C  0.46527063  0.04627414  0.12552815     0.15800
C286        C  0.44097574  0.02460756  0.14062024    -0.18600
C287        C  0.49205796  0.03132132  0.13850657    -0.20500
C288        C  0.51622561  0.04871199  0.12190736    -0.13000
C289        C  0.51419862  0.07864952  0.09101238     0.03700
C290        C  0.48706530  0.09903245  0.07984528    -0.25200
H291        H  0.39141033  0.09181311  0.08905339     0.08700
H292        H  0.43367309  0.12909309  0.06241121     0.12300
H293        H  0.44293429  0.99503762  0.16228279     0.12300
H294        H  0.49435252  0.00560192  0.16136472     0.12000
H295        H  0.53629049  0.03762381  0.13350220     0.12600
H296        H  0.48490242  0.12488125  0.05699606     0.14500
C297        C  0.03275898  0.17846993  0.13018263    -0.05500
C298        C  0.00797908  0.21305742  0.11991490    -0.05400
C299        C  0.00599512  0.27834169  0.12129198    -0.23600
C300        C  0.02869231  0.31098641  0.13273739     0.18600
C301        C  0.05288304  0.27727191  0.14451924     0.15800
C302        C  0.05420858  0.21174037  0.14464278    -0.18600
C303        C  0.07551102  0.30956088  0.15588978    -0.20500
C304        C  0.07485650  0.37473310  0.15406971    -0.13000
C305        C  0.05145485  0.41062962  0.14083796     0.03700
C306        C  0.02757739  0.37672357  0.13241622    -0.25200
H307        H  0.98957444  0.19031279  0.11154362     0.08700
H308        H  0.98683850  0.30330963  0.11290080     0.12300
H309        H  0.07259687  0.18625552  0.15479581     0.12300
H310        H  0.09408331  0.28434645  0.16574247     0.12000
H311        H  0.09306627  0.39515850  0.16369619     0.12600
H312        H  0.00780817  0.40058580  0.12553619     0.14500
C313        C  0.06307819  0.08006647  0.11341366    -0.05500
C314        C  0.06802509  0.01432520  0.11213983    -0.05400
C315        C  0.09326900  0.98791310  0.10019558    -0.23600
C316        C  0.11436933  0.02637256  0.08896660     0.18600
C317        C  0.10924661  0.09203368  0.08779601     0.15800
C318        C  0.08330109  0.11823619  0.09869435    -0.18600
C319        C  0.13053232  0.13054155  0.07663896    -0.20500
C320        C  0.15693917  0.10423512  0.06788850    -0.13000
C321        C  0.16231656  0.03897040  0.06954266     0.03700
C322        C  0.14069539  0.00021257  0.07947940    -0.25200
H323        H  0.05261365  0.98314651  0.12185541     0.08700
H324        H  0.09661749  0.93736911  0.10073623     0.12300
H325        H  0.07951004  0.16828404  0.09595227     0.12300
H326        H  0.12702732  0.18104259  0.07551987     0.12000
H327        H  0.17325140  0.13501537  0.06008967     0.12600
H328        H  0.14459835  0.94978907  0.08072664     0.14500
C329        C  0.08045303  0.50376366  0.12400141    -0.05500
C330        C  0.10418142  0.50152440  0.14511255    -0.05400
C331        C  0.13067637  0.51775263  0.13491935    -0.23600
C332        C  0.13450569  0.54058920  0.10358693     0.18600
C333        C  0.11129491  0.54797526  0.08222889     0.15800
C334        C  0.08446048  0.52977614  0.09248161    -0.18600
C335        C  0.11536947  0.57470657  0.05124007    -0.20500
C336        C  0.14209963  0.59402434  0.04191226    -0.13000
C337        C  0.16513793  0.58570890  0.06323468     0.03700
C338        C  0.16116079  0.55848301  0.09389025    -0.25200
H339        H  0.10227599  0.48932371  0.17055998     0.08700
H340        H  0.14805928  0.51420488  0.15203110     0.12300
H341        H  0.06713816  0.53793282  0.07584385     0.12300
H342        H  0.09789177  0.58127032  0.03440794     0.12000
H343        H  0.14480182  0.61512435  0.01807619     0.12600
H344        H  0.17874735  0.55276303  0.11068155     0.14500
C345        C  0.92448198  0.97414103  0.07140926    -0.05500
C346        C  0.93012603  0.95051232  0.10286538    -0.05400
C347        C  0.95354700  0.96888475  0.11980906    -0.23600
C348        C  0.97168161  0.01132062  0.10558307     0.18600
C349        C  0.96692122  0.03350122  0.07346748     0.15800
C350        C  0.94329106  0.01465145  0.05644794    -0.18600
C351        C  0.98565341  0.07473338  0.05924470    -0.20500
C352        C  0.00798331  0.09619783  0.07731827    -0.13000
C353        C  0.01162607  0.07842247  0.11030891     0.03700
C354        C  0.99412922  0.03268943  0.12340564    -0.25200
H355        H  0.91596993  0.91902255  0.11478714     0.08700
H356        H  0.95705959  0.95112430  0.14435882     0.12300
H357        H  0.93916873  0.03264875  0.03204642     0.12300
H358        H  0.98277405  0.09119768  0.03438695     0.12000
H359        H  0.02197325  0.12875221  0.06593399     0.12600
H360        H  0.99769634  0.01294058  0.14747374     0.14500
C361        C  0.92624872  0.58282621  0.08001848    -0.05500
C362        C  0.93073790  0.60873295  0.11042422    -0.05400
C363        C  0.95637087  0.59792035  0.12650287    -0.23600
C364        C  0.97813486  0.56105305  0.11247630     0.18600
C365        C  0.97424111  0.53557078  0.08170978     0.15800
C366        C  0.94819045  0.54634356  0.06560892    -0.18600
C367        C  0.99629724  0.49902313  0.06800085    -0.20500
C368        C  0.02154371  0.48624520  0.08510740    -0.13000
C369        C  0.02555051  0.50911622  0.11665921     0.03700
C370        C  0.00330668  0.54791173  0.12949702    -0.25200
H371        H  0.91429400  0.63721700  0.12197475     0.08700
H372        H  0.95906701  0.61800256  0.15011209     0.12300
H373        H  0.94499117  0.52636687  0.04206958     0.12300
H374        H  0.99376385  0.47882711  0.04440249     0.12000
H375        H  0.03740606  0.45479092  0.07452349     0.12600
H376        H  0.00429650  0.56615085  0.15359060     0.14500
C377        C  0.55512645  0.99634758  0.41564283    -0.05500
C378        C  0.57823155  0.02978514  0.42661836    -0.05400
C379        C  0.57931284  0.05111578  0.45811157    -0.23600
C380        C  0.55795457  0.03798602  0.48007786     0.18600
C381        C  0.53595206  0.00013692  0.47089607     0.15800
C382        C  0.53499436  0.97835449  0.43906037    -0.18600
C383        C  0.51523148  0.98542478  0.49367714    -0.20500
C384        C  0.51757892  0.01662495  0.02832082    -0.13000
C385        C  0.53857257  0.05856988  0.03635162     0.03700
C386        C  0.56027359  0.06791904  0.01354561    -0.25200
H387        H  0.59601854  0.03965154  0.41137565     0.08700
H388        H  0.59689951  0.07835168  0.46522811     0.12300
H389        H  0.51792297  0.94957003  0.43195855     0.12300
H390        H  0.49862986  0.95466803  0.48749303     0.12000
H391        H  0.50165108  0.00326666  0.04548881     0.12600
H392        H  0.57729270  0.09780241  0.01946340     0.14500
C393        C  0.52485433  0.00110573  0.36341987    -0.05500
C394        C  0.51976446  0.98797418  0.33052627    -0.05400
C395        C  0.49409979  0.00610038  0.31552189    -0.23600
C396        C  0.47289750  0.03875546  0.33281826     0.18600
C397        C  0.47830457  0.05603604  0.36493772     0.15800
C398        C  0.50438382  0.03944167  0.37943530    -0.18600
C399        C  0.45729221  0.08868394  0.38250511    -0.20500
C400        C  0.43091862  0.10304444  0.36864025    -0.13000
C401        C  0.42515456  0.08608114  0.33674393     0.03700
C402        C  0.44637669  0.05434744  0.31873431    -0.25200
H403        H  0.53540154  0.96109248  0.31682458     0.08700
H404        H  0.49062570  0.99331064  0.29064232     0.12300
H405        H  0.50810054  0.05651243  0.40336167     0.12300
H406        H  0.46108719  0.10223477  0.40720566     0.12000
H407        H  0.41499732  0.12777253  0.38293530     0.12600
H408        H  0.44215684  0.04116335  0.29406551     0.14500
C409        C  0.54609999  0.49457094  0.04129542    -0.05500
C410        C  0.57128037  0.47494907  0.02533368    -0.05400
C411        C  0.57800543  0.48718500  0.48208610    -0.23600
C412        C  0.55893877  0.52847856  0.46552291     0.18600
C413        C  0.53493254  0.55308362  0.48191669     0.15800
C414        C  0.52706456  0.53652283  0.02438067    -0.18600
C415        C  0.51583216  0.59436129  0.46554606    -0.20500
C416        C  0.51959104  0.60822108  0.43275596    -0.13000
C417        C  0.54272854  0.58171316  0.41520383     0.03700
C418        C  0.56322807  0.54447807  0.43270810    -0.25200
H419        H  0.58679949  0.44402917  0.03756540     0.08700
H420        H  0.59676580  0.46824108  0.47010586     0.12300
H421        H  0.50855559  0.55693726  0.03610200     0.12300
H422        H  0.49740177  0.61429231  0.47779539     0.12000
H423        H  0.50358961  0.63797478  0.42056185     0.12600
H424        H  0.58218096  0.52615674  0.42110029     0.14500
C425        C  0.42302860  0.48285750  0.33451800    -0.05500
C426        C  0.42864073  0.46551372  0.36699516    -0.05400
C427        C  0.45434147  0.47835313  0.38115162    -0.23600
C428        C  0.47474698  0.50918232  0.36310166     0.18600
C429        C  0.46969779  0.52504564  0.33017436     0.15800
C430        C  0.44382658  0.51181789  0.31604060    -0.18600
C431        C  0.49051760  0.55439923  0.31211240    -0.20500
C432        C  0.51516240  0.57219702  0.32719928    -0.13000
C433        C  0.51901881  0.56337030  0.36096893     0.03700
C434        C  0.49963728  0.52634604  0.37788777    -0.25200
H435        H  0.41298280  0.44274281  0.38162248     0.08700
H436        H  0.45796958  0.46556356  0.40642634     0.12300
H437        H  0.43973122  0.52491236  0.29088737     0.12300
H438        H  0.48737124  0.56538405  0.28657065     0.12000
H439        H  0.53037197  0.59726231  0.31299176     0.12600
H440        H  0.50308134  0.51197816  0.40289657     0.14500
C441        C  0.54115570  0.66693769  0.37406082    -0.05500
C442        C  0.51713945  0.69902313  0.35997640    -0.05400
C443        C  0.51446667  0.76414737  0.35872922    -0.23600
C444        C  0.53528147  0.79969005  0.37208260     0.18600
C445        C  0.55887544  0.76933949  0.38736131     0.15800
C446        C  0.56138167  0.70363031  0.38884697    -0.18600
C447        C  0.57944612  0.80527415  0.40111474    -0.20500
C448        C  0.57709071  0.87061822  0.39863383    -0.13000
C449        C  0.55404508  0.90213222  0.38240980     0.03700
C450        C  0.53251827  0.86518370  0.37064188    -0.25200
H451        H  0.49940862  0.67499831  0.35092712     0.08700
H452        H  0.49583193  0.78674569  0.34756048     0.12300
H453        H  0.57924196  0.68056552  0.40137601     0.12300
H454        H  0.59758211  0.78289976  0.41338084     0.12000
H455        H  0.59366284  0.89701161  0.40900474     0.12600
H456        H  0.51328314  0.88614919  0.36043129     0.14500
C457        C  0.67230835  0.03981671  0.30854156    -0.06300
C458        C  0.67010252  0.97450608  0.31008069    -0.05400
C459        C  0.64520886  0.94844717  0.32089281    -0.23600
C460        C  0.62245665  0.98735745  0.33128364     0.18600
C461        C  0.62439147  0.05310270  0.32929877     0.15800
C462        C  0.64912818  0.07895837  0.31744083    -0.18600
C463        C  0.60181972  0.09188791  0.33991202    -0.20500
C464        C  0.57833274  0.06587789  0.35430168    -0.13000
C465        C  0.57690688  0.00031199  0.35896575     0.03700
C466        C  0.59837514  0.96148991  0.34487931    -0.25200
H467        H  0.68770276  0.94363128  0.30297335     0.08700
H468        H  0.64410187  0.89789589  0.32212028     0.12300
H469        H  0.65077534  0.12941776  0.31635961     0.12300
H470        H  0.60274963  0.14243342  0.33817449     0.12000
H471        H  0.56186106  0.09726192  0.36374721     0.12600
H472        H  0.59727832  0.91112625  0.34528936     0.14500
C473        C  0.66726611  0.51558241  0.31058657    -0.05500
C474        C  0.66341605  0.58118219  0.31056225    -0.05400
C475        C  0.63816507  0.60966729  0.32160995    -0.23600
C476        C  0.61665282  0.57302977  0.33394216     0.18600
C477        C  0.62037514  0.50706950  0.33418612     0.15800
C478        C  0.64537690  0.47866238  0.32179844    -0.18600
C479        C  0.59929558  0.47070391  0.34745898    -0.20500
C480        C  0.57527685  0.49933602  0.36143406    -0.13000
C481        C  0.57119750  0.56534286  0.36213691     0.03700
C482        C  0.59180580  0.60148122  0.34662031    -0.25200
H483        H  0.67998839  0.61050424  0.30192586     0.08700
H484        H  0.63577234  0.66037743  0.32130375     0.12300
H485        H  0.64827236  0.42799854  0.32210876     0.12300
H486        H  0.60165978  0.41999392  0.34773377     0.12000
H487        H  0.55974841  0.46963108  0.37216963     0.12600
H488        H  0.58911559  0.65176195  0.34422052     0.14500
C489        C  0.04887350  0.99082782  0.28029551    -0.05500
C490        C  0.07304708  0.97436038  0.26168508    -0.05400
C491        C  0.07579978  0.99532783  0.22974249    -0.23600
C492        C  0.05411373  0.03209493  0.21491421     0.18600
C493        C  0.02915638  0.04683240  0.23227724     0.15800
C494        C  0.02636756  0.02509954  0.26448946    -0.18600
C495        C  0.00740810  0.08316765  0.21708498    -0.20500
C496        C  0.01011505  0.10298764  0.18478396    -0.13000
C497        C  0.03441276  0.08605890  0.16643082     0.03700
C498        C  0.05692976  0.05307450  0.18272397    -0.25200
H499        H  0.09027222  0.94585153  0.27240362     0.08700
H500        H  0.09491999  0.98248235  0.21659568     0.12300
H501        H  0.00633517  0.03372171  0.27634728     0.12300
H502        H  0.98818657  0.09585531  0.23007276     0.12000
H503        H  0.99269322  0.13007343  0.17360089     0.12600
H504        H  0.07686716  0.04317775  0.17080608     0.14500
C505        C  0.04887323  0.51335872  0.17180497    -0.05500
C506        C  0.05443317  0.57744949  0.17516572    -0.05400
C507        C  0.05514733  0.60441610  0.20549901    -0.23600
C508        C  0.04974964  0.56853042  0.23332978     0.18600
C509        C  0.04291745  0.50529260  0.23040522     0.15800
C510        C  0.04220959  0.47834388  0.19988268    -0.18600
C511        C  0.03754730  0.46929245  0.25815611    -0.20500
C512        C  0.03888005  0.49571265  0.28851846    -0.13000
C513        C  0.04499873  0.55936687  0.29208691     0.03700
C514        C  0.05118517  0.59492422  0.26400176    -0.25200
H515        H  0.05887916  0.60633591  0.15403479     0.08700
H516        H  0.06010536  0.65322881  0.20717110     0.12300
H517        H  0.03671845  0.42992786  0.19841736     0.12300
H518        H  0.03252243  0.42052172  0.25644056     0.12000
H519        H  0.03474728  0.46649255  0.30962700     0.12600
H520        H  0.05782602  0.64240703  0.26560261     0.14500
C521        C  0.04777710  0.89388012  0.31190242    -0.05500
C522        C  0.02477983  0.87054810  0.29467134    -0.05400
C523        C  0.02031709  0.80668234  0.29373358    -0.23600
C524        C  0.03823569  0.76393404  0.31072443     0.18600
C525        C  0.06186342  0.78567264  0.32711254     0.15800
C526        C  0.06738795  0.84978142  0.32613420    -0.18600
C527        C  0.07882265  0.74332296  0.34561361    -0.20500
C528        C  0.07284315  0.68009033  0.34723850    -0.13000
C529        C  0.05091042  0.65610032  0.32844202     0.03700
C530        C  0.03277375  0.69988820  0.31169072    -0.25200
H531        H  0.00935005  0.90252514  0.28297462     0.08700
H532        H  0.00217295  0.79104685  0.28076770     0.12300
H533        H  0.08637869  0.86433916  0.33751127     0.12300
H534        H  0.09633582  0.75932491  0.35956759     0.12000
H535        H  0.08579254  0.65045939  0.36341017     0.12600
H536        H  0.01485976  0.68368433  0.29852146     0.14500
C537        C  0.16441018  0.09133417  0.36926141    -0.05500
C538        C  0.15489399  0.12268340  0.34077842    -0.05400
C539        C  0.13008855  0.10612797  0.32564110    -0.23600
C540        C  0.11407081  0.05833627  0.33891811     0.18600
C541        C  0.12262547  0.02820987  0.36827146     0.15800
C542        C  0.14799391  0.04428562  0.38313702    -0.18600
C543        C  0.10542448  0.98322444  0.38225814    -0.20500
C544        C  0.08089682  0.96597557  0.36636940    -0.13000
C545        C  0.07389408  0.98989468  0.33504645     0.03700
C546        C  0.08979968  0.03999516  0.32296872    -0.25200
H547        H  0.16703942  0.15915403  0.32972317     0.08700
H548        H  0.12362596  0.13021567  0.30327424     0.12300
H549        H  0.15489781  0.02044669  0.40541638     0.12300
H550        H  0.11095536  0.96122528  0.40544896     0.12000
H551        H  0.06795744  0.93169064  0.37805094     0.12600
H552        H  0.08353802  0.06555493  0.30101792     0.14500
C553        C  0.17345543  0.49853570  0.37331647    -0.05500
C554        C  0.17392315  0.53343090  0.34412108    -0.05400
C555        C  0.14895277  0.55055579  0.32800585    -0.23600
C556        C  0.12312919  0.53366638  0.34108773     0.18600
C557        C  0.12230169  0.49670586  0.36977277     0.15800
C558        C  0.14764128  0.47868695  0.38568748    -0.18600
C559        C  0.09611271  0.47988448  0.38223952    -0.20500
C560        C  0.07095992  0.50406585  0.36794739    -0.13000
C561        C  0.07170893  0.54693862  0.34146624     0.03700
C562        C  0.09810692  0.55634246  0.32671729    -0.25200
H563        H  0.19363213  0.54817553  0.33386988     0.08700
H564        H  0.14978575  0.57864076  0.30584660     0.12300
H565        H  0.14722069  0.45093510  0.40798736     0.12300
H566        H  0.09507230  0.44933483  0.40348400     0.12000
H567        H  0.05133886  0.48915671  0.37801891     0.12600
H568        H  0.09920722  0.58653769  0.30531032     0.14500
C569        C  0.02157986  0.98706977  0.33565319    -0.05500
C570        C  0.00753750  0.94370282  0.35577760    -0.05400
C571        C  0.98201071  0.95990529  0.37059272    -0.23600
C572        C  0.96972472  0.01998119  0.36604997     0.18600
C573        C  0.98454706  0.06605696  0.34891089     0.15800
C574        C  0.01127176  0.05022421  0.33569443    -0.18600
C575        C  0.97160110  0.12594655  0.34377862    -0.20500
C576        C  0.94378012  0.13864049  0.35408459    -0.13000
C577        C  0.92894152  0.09232809  0.37065750     0.03700
C578        C  0.94242988  0.03383503  0.37750256    -0.25200
H579        H  0.01587824  0.89621178  0.35993415     0.08700
H580        H  0.97136768  0.92456549  0.38460431     0.12300
H581        H  0.02282651  0.08578534  0.32296742     0.12300
H582        H  0.98252466  0.16204410  0.33068135     0.12000
H583        H  0.93380006  0.18446410  0.34896221     0.12600
H584        H  0.93113623  0.99792186  0.39034510     0.14500
C585        C  0.01708492  0.57495141  0.34354866    -0.05500
C586        C  0.01367484  0.57693668  0.37746175    -0.05400
C587        C  0.98830888  0.55983449  0.39204551    -0.23600
C588        C  0.96517449  0.54502494  0.37287140     0.18600
C589        C  0.96703236  0.55256683  0.33893184     0.15800
C590        C  0.99245889  0.56862367  0.32474134    -0.18600
C591        C  0.94363628  0.54236695  0.31939573    -0.20500
C592        C  0.91880450  0.52225858  0.33325486    -0.13000
C593        C  0.91708687  0.51093824  0.36675731     0.03700
C594        C  0.94021830  0.52307997  0.38669716    -0.25200
H595        H  0.03112160  0.58849214  0.39277113     0.08700
H596        H  0.98691456  0.55747615  0.41823712     0.12300
H597        H  0.99294186  0.57483347  0.29864809     0.12300
H598        H  0.94471214  0.54877292  0.29330660     0.12000
H599        H  0.90114534  0.51354208  0.31760690     0.12600
H600        H  0.93872448  0.51568115  0.41269777     0.14500
In601      In  0.84699857  0.44412263  0.90175003     1.36900
C602        C  0.80560690  0.45063533  0.85848060     0.77300
O603        O  0.86975501  0.34980943  0.90507871    -0.61100
O604        O  0.82581739  0.35573461  0.91527811    -0.52000
C605        C  0.89407296  0.48521751  0.87555234     0.70000
O606        O  0.87057555  0.48921724  0.86122641    -0.46900
C607        C  0.84256450  0.51389876  0.95399300     0.74700
O608        O  0.83054383  0.43240775  0.85189183    -0.58800
O609        O  0.84473166  0.45497668  0.95556623    -0.48900
O610        O  0.80180881  0.46888235  0.88714903    -0.55200
C611        C  0.84773270  0.32122940  0.91153810     0.84900
O612        O  0.89364480  0.45937261  0.90331650    -0.57100
O613        O  0.84082524  0.53721701  0.92568874    -0.60400
In614      In  0.84700432  0.13176878  0.89902750     1.36900
C615        C  0.80803734  0.11467320  0.85348711     0.77300
O616        O  0.84432598  0.03576432  0.92163212    -0.61100
O617        O  0.84119706  0.11376851  0.95263352    -0.52000
C618        C  0.89930946  0.11150031  0.87835891     0.70000
O619        O  0.88875070  0.07965207  0.90102758    -0.46900
C620        C  0.84716755  0.25313909  0.91130030     0.74700
O621        O  0.83409679  0.10826273  0.84791551    -0.58800
O622        O  0.82462714  0.22470524  0.90894448    -0.48900
O623        O  0.80199451  0.12685564  0.88239849    -0.55200
C624        C  0.84215947  0.05493507  0.95019295     0.84900
O625        O  0.88260271  0.15224910  0.86517681    -0.57100
O626        O  0.86934717  0.21881766  0.91031172    -0.60400
In627      In  0.24881700  0.45258557  0.91182278     1.36900
C628        C  0.28789645  0.46211597  0.86568854     0.77300
O629        O  0.24949739  0.54856578  0.93397515    -0.61100
O630        O  0.25657051  0.46989292  0.96523830    -0.52000
C631        C  0.20009606  0.48907513  0.88458982     0.70000
O632        O  0.22368093  0.50266469  0.87305336    -0.46900
C633        C  0.24751410  0.32752439  0.91994835     0.74700
O634        O  0.26268189  0.45010559  0.86004393    -0.58800
O635        O  0.27021585  0.35552465  0.91706141    -0.48900
O636        O  0.29342385  0.47024610  0.89522349    -0.55200
C637        C  0.25362836  0.52870847  0.96254243     0.84900
O638        O  0.20132353  0.45811266  0.91100235    -0.57100
O639        O  0.22577381  0.36347781  0.92114794    -0.60400
In640      In  0.24334324  0.13539839  0.90865101     1.36900
C641        C  0.28367941  0.10958581  0.86507128     0.77300
O642        O  0.22354890  0.23054709  0.92167884    -0.61100
O643        O  0.26753157  0.22353281  0.91315444    -0.52000
C644        C  0.19300173  0.11064727  0.88303454     0.70000
O645        O  0.20860933  0.15203477  0.87171817    -0.46900
C646        C  0.24828112  0.06491592  0.96264786     0.74700
O647        O  0.25810389  0.11885729  0.85763255    -0.58800
O648        O  0.24735717  0.12403719  0.96282890    -0.48900
O649        O  0.28852626  0.10846785  0.89507276    -0.55200
C650        C  0.24623666  0.25875554  0.91905743     0.84900
O651        O  0.20280925  0.08272341  0.90810132    -0.57100
O652        O  0.24779678  0.04175455  0.93485552    -0.60400
C653        C  0.04632809  0.59698699  0.81981295    -0.02800
C654        C  0.04791988  0.97876651  0.81291878    -0.02800
In655      In  0.74242438  0.43880477  0.79003937     1.36900
C656        C  0.74126977  0.31470469  0.77920496     0.77300
O657        O  0.73838664  0.45382719  0.73596173    -0.61100
O658        O  0.75461802  0.52695099  0.76320217    -0.52000
C659        C  0.69325128  0.48852972  0.81127244     0.70000
O660        O  0.70108491  0.43198583  0.81683313    -0.46900
C661        C  0.78297932  0.44821961  0.83451416     0.74700
O662        O  0.72068023  0.34634690  0.79077090    -0.58800
O663        O  0.78787135  0.43516718  0.80549187    -0.48900
O664        O  0.76192199  0.34690866  0.77139206    -0.55200
C665        C  0.74719248  0.50868074  0.73587039     0.84900
O666        O  0.71055944  0.51910622  0.79496998    -0.57100
O667        O  0.75725664  0.45682565  0.84116066    -0.60400
In668      In  0.74601821  0.11946290  0.78272733     1.36900
C669        C  0.78629839  0.11208572  0.82827006     0.77300
O670        O  0.75200352  0.02631651  0.75816109    -0.61100
O671        O  0.74943058  0.10776524  0.72811316    -0.52000
C672        C  0.69810306  0.07094578  0.80181691     0.70000
O673        O  0.72208394  0.04726182  0.80963140    -0.46900
C674        C  0.74188852  0.24543379  0.77750023     0.74700
O675        O  0.76045773  0.12023100  0.83452742    -0.58800
O676        O  0.76199873  0.21318339  0.76513218    -0.48900
O677        O  0.79177749  0.10494403  0.79865645    -0.55200
C678        C  0.75105923  0.04862344  0.72976557     0.84900
O679        O  0.69853389  0.12084973  0.78480501    -0.57100
O680        O  0.72309619  0.21327367  0.79038865    -0.60400
C681        C  0.54186451  0.59265486  0.88802086    -0.02800
C682        C  0.55288474  0.97307587  0.88384914    -0.02800
In683      In  0.34847303  0.44175203  0.79460685     1.36900
C684        C  0.30917391  0.46201667  0.83985836     0.77300
O685        O  0.34045895  0.53861014  0.77157513    -0.61100
O686        O  0.34509254  0.46098573  0.74070816    -0.52000
C687        C  0.39871025  0.45873038  0.82065522     0.70000
O688        O  0.39217499  0.47840447  0.79246705    -0.46900
C689        C  0.34756192  0.31840974  0.78535307     0.74700
O690        O  0.33492817  0.46964711  0.84501524    -0.58800
O691        O  0.32571303  0.35259250  0.79000080    -0.48900
O692        O  0.30328344  0.44990635  0.81095243    -0.55200
C693        C  0.34154609  0.51959796  0.74287886     0.84900
O694        O  0.37964477  0.42998102  0.83511507    -0.57100
O695        O  0.36987301  0.34770534  0.78265129    -0.60400
In696      In  0.34672690  0.12596571  0.79708480     1.36900
C697        C  0.30609849  0.10749163  0.84060008     0.77300
O698        O  0.36846074  0.21413249  0.78137037    -0.61100
O699        O  0.32538769  0.22203663  0.79465868    -0.52000
C700        C  0.39735409  0.09526815  0.82279792     0.70000
O701        O  0.37923236  0.13143580  0.83600704    -0.46900
C702        C  0.33855930  0.05881122  0.74457640     0.74700
O703        O  0.33190045  0.10158475  0.84771090    -0.58800
O704        O  0.33926249  0.11773776  0.74356457    -0.48900
O705        O  0.30112210  0.11760511  0.81094502    -0.55200
C706        C  0.34706930  0.24983785  0.78628595     0.84900
O707        O  0.38949592  0.07382243  0.79620246    -0.57100
O708        O  0.34136511  0.03416750  0.77252362    -0.60400
In709      In  0.84172483  0.61513232  0.53495882     1.36900
C710        C  0.84148804  0.73728233  0.52054061     0.77300
O711        O  0.84687567  0.61030826  0.98109258    -0.61100
O712        O  0.84278474  0.52936134  0.01118484    -0.52000
C713        C  0.89267777  0.59036723  0.56071440     0.70000
O714        O  0.88487001  0.56400770  0.53537575    -0.46900
C715        C  0.80184307  0.60255493  0.58023033     0.74700
O716        O  0.86389116  0.70333477  0.52174932    -0.58800
O717        O  0.79620424  0.61485535  0.55093110    -0.48900
O718        O  0.81925785  0.70824305  0.52441702    -0.55200
C719        C  0.84364370  0.55222774  0.98280163     0.84900
O720        O  0.87428603  0.62779079  0.57260779    -0.57100
O721        O  0.82764568  0.59142843  0.58601258    -0.60400
In722      In  0.84040594  0.92793872  0.52898411     1.36900
C723        C  0.80119349  0.94427372  0.57465708     0.77300
O724        O  0.83212544  0.02329628  0.50591478    -0.61100
O725        O  0.84760594  0.95359334  0.97584767    -0.52000
C726        C  0.88914119  0.95656442  0.55493635     0.70000
O727        O  0.88017089  0.98122844  0.52867898    -0.46900
C728        C  0.84126499  0.80567995  0.51866817     0.74700
O729        O  0.82720552  0.94348100  0.58042114    -0.58800
O730        O  0.81872316  0.83901017  0.52001273    -0.48900
O731        O  0.79492086  0.94148838  0.54504816    -0.55200
C732        C  0.84264183  0.01185939  0.97835394     0.84900
O733        O  0.87362374  0.91593879  0.56710745    -0.57100
O734        O  0.86348542  0.83562929  0.51909604    -0.60400
In735      In  0.24361271  0.64423546  0.54443400     1.36900
C736        C  0.28413042  0.62963860  0.58961780     0.77300
O737        O  0.25421572  0.54855511  0.52403462    -0.61100
O738        O  0.24780534  0.62890240  0.98768509    -0.52000
C739        C  0.19145721  0.60804302  0.55476825     0.70000
O740        O  0.21171311  0.59664010  0.57417920    -0.46900
C741        C  0.23906559  0.76977501  0.54242749     0.74700
O742        O  0.25847752  0.62211242  0.59562608    -0.58800
O743        O  0.25474451  0.73903423  0.52318515    -0.48900
O744        O  0.28935496  0.64173308  0.56022297    -0.55200
C745        C  0.25305795  0.57059105  0.99048536     0.84900
O746        O  0.19777109  0.63905301  0.52963586    -0.57100
O747        O  0.22537792  0.73655905  0.56178544    -0.60400
In748      In  0.23544324  0.96302935  0.54802752     1.36900
C749        C  0.23728134  0.83863601  0.54330358     0.77300
O750        O  0.24069004  0.97048400  0.99323699    -0.61100
O751        O  0.25352118  0.04806167  0.01980317    -0.52000
C752        C  0.18350863  0.01092479  0.55962871     0.70000
O753        O  0.20539978  0.04070913  0.56416217    -0.46900
C754        C  0.27510202  0.97062506  0.59338744     0.74700
O755        O  0.22171199  0.86779303  0.56327837    -0.58800
O756        O  0.28042336  0.97111138  0.56354411    -0.48900
O757        O  0.25154859  0.87315154  0.52499784    -0.55200
C758        C  0.24803670  0.02646415  0.99252671     0.84900
O759        O  0.18815734  0.95613222  0.54954678    -0.57100
O760        O  0.24931800  0.96880834  0.60027401    -0.60400
C761        C  0.02821044  0.10642657  0.62538642    -0.02800
C762        C  0.04685731  0.48492936  0.63231791    -0.02800
In763      In  0.33912684  0.95614202  0.66087942     1.36900
C764        C  0.29747772  0.96871693  0.61783008     0.77300
O765        O  0.36167256  0.86239603  0.65399590    -0.61100
O766        O  0.32115973  0.86343407  0.67571830    -0.52000
C767        C  0.38544008  0.00239409  0.63580106     0.70000
O768        O  0.36095106  0.01802570  0.62579297    -0.46900
C769        C  0.33642586  0.02175140  0.71526526     0.74700
O770        O  0.32302997  0.96097989  0.61009100    -0.58800
O771        O  0.34120222  0.96331312  0.71528866    -0.48900
O772        O  0.29292282  0.97188212  0.64791212    -0.55200
C773        C  0.34208539  0.83097417  0.66556900     0.84900
O774        O  0.38632965  0.96305226  0.65915272    -0.57100
O775        O  0.33124317  0.04617465  0.68775435    -0.60400
In776      In  0.34499260  0.63707938  0.66145845     1.36900
C777        C  0.30591487  0.62813306  0.61508041     0.77300
O778        O  0.34136256  0.54202555  0.68568780    -0.61100
O779        O  0.34013914  0.62099232  0.71578132    -0.52000
C780        C  0.39699826  0.59747523  0.64567271     0.70000
O781        O  0.37555612  0.58478523  0.62937709    -0.46900
C782        C  0.34335096  0.76209058  0.66586689     0.74700
O783        O  0.33121780  0.63938545  0.60914834    -0.58800
O784        O  0.32390739  0.72938542  0.67684740    -0.48900
O785        O  0.30064680  0.61871987  0.64471736    -0.55200
C786        C  0.34048066  0.56205962  0.71414020     0.84900
O787        O  0.39171199  0.63044757  0.67011647    -0.57100
O788        O  0.36383307  0.73093699  0.65396939    -0.60400
C789        C  0.54350245  0.46920908  0.56628714    -0.02800
C790        C  0.53651566  0.08878700  0.56563854    -0.02800
In791      In  0.74136033  0.61952849  0.65205210     1.36900
C792        C  0.74055736  0.74498074  0.65602726     0.77300
O793        O  0.74602953  0.52663628  0.67871844    -0.61100
O794        O  0.74682622  0.60790641  0.70679751    -0.52000
C795        C  0.69270016  0.57450843  0.63382511     0.70000
O796        O  0.69358755  0.62266994  0.65095683    -0.46900
C797        C  0.78030398  0.60544328  0.60574029     0.74700
O798        O  0.71969977  0.71577948  0.64652686    -0.58800
O799        O  0.78587149  0.59541538  0.63531687    -0.48900
O800        O  0.76142652  0.71004169  0.66510653    -0.55200
C801        C  0.74719542  0.54884175  0.70649258     0.84900
O802        O  0.71647450  0.55135424  0.62549167    -0.57100
O803        O  0.75492208  0.62159125  0.59989048    -0.60400
In804      In  0.74241059  0.93953624  0.64849176     1.36900
C805        C  0.78021057  0.94478580  0.60071501     0.77300
O806        O  0.75333472  0.02927327  0.67276520    -0.61100
O807        O  0.74417603  0.95171050  0.70293605    -0.52000
C808        C  0.69267269  0.99237654  0.63170217     0.70000
O809        O  0.71572951  0.01559844  0.62396550    -0.46900
C810        C  0.74086672  0.81416549  0.65493321     0.74700
O811        O  0.75410597  0.94403422  0.59551126    -0.58800
O812        O  0.76073925  0.84445984  0.66620490    -0.48900
O813        O  0.78701805  0.94332618  0.63023610    -0.55200
C814        C  0.75000904  0.00866963  0.70117788     0.84900
O815        O  0.69505566  0.94195732  0.64823641    -0.57100
O816        O  0.72159075  0.84793214  0.64136040    -0.60400
C817        C  0.56441650  0.06388670  0.58198327    -0.05500
C818        C  0.56775462  0.99931841  0.59015153    -0.05400
C819        C  0.59280738  0.97361933  0.60352566    -0.23600
C820        C  0.61585653  0.01102165  0.60766131     0.18600
C821        C  0.61360906  0.07504514  0.59825655     0.15800
C822        C  0.58810511  0.10098767  0.58558098    -0.18600
C823        C  0.63721655  0.11175172  0.60081265    -0.20500
C824        C  0.66290497  0.08490702  0.61207261    -0.13000
C825        C  0.66522216  0.02133367  0.62155845     0.03700
C826        C  0.64148581  0.98483352  0.61983079    -0.25200
H827        H  0.55060391  0.96861745  0.58627167     0.08700
H828        H  0.59434014  0.92409927  0.60994359     0.12300
H829        H  0.58755086  0.14932919  0.57723041     0.12300
H830        H  0.63595147  0.16090484  0.59358254     0.12000
H831        H  0.68101382  0.11380056  0.61329152     0.12600
H832        H  0.64326821  0.93551372  0.62674047     0.14500
C833        C  0.66628408  0.54598688  0.62452750    -0.05500
C834        C  0.66643772  0.48109492  0.61986203    -0.05400
C835        C  0.64199094  0.45285981  0.61025062    -0.23600
C836        C  0.61711291  0.48932817  0.60424283     0.18600
C837        C  0.61677950  0.55478527  0.60839823     0.15800
C838        C  0.64123528  0.58266723  0.61930850    -0.18600
C839        C  0.59243972  0.59136723  0.60011045    -0.20500
C840        C  0.56888272  0.56346413  0.58741143    -0.13000
C841        C  0.56820892  0.49774378  0.58456437     0.03700
C842        C  0.59300346  0.46140371  0.59284832    -0.25200
H843        H  0.68553951  0.45204998  0.62384421     0.08700
H844        H  0.64270847  0.40264015  0.60689308     0.12300
H845        H  0.64114145  0.63292939  0.62242413     0.12300
H846        H  0.59198405  0.64185594  0.60227327     0.12000
H847        H  0.55109862  0.59349708  0.57932535     0.12600
H848        H  0.59451057  0.41161433  0.58852932     0.14500
C849        C  0.53553892  0.16098083  0.55970787    -0.05500
C850        C  0.53083738  0.18930564  0.52869820    -0.05400
C851        C  0.53243899  0.25373741  0.52372542    -0.23600
C852        C  0.53745121  0.29237285  0.54972444     0.18600
C853        C  0.53943407  0.26618995  0.58136149     0.15800
C854        C  0.53814091  0.20106404  0.58621463    -0.18600
C855        C  0.54255893  0.30566658  0.60757425    -0.20500
C856        C  0.54409566  0.37025344  0.60234125    -0.13000
C857        C  0.54380713  0.39699928  0.57067676     0.03700
C858        C  0.53976866  0.35698275  0.54451565    -0.25200
H859        H  0.52578410  0.16242043  0.50784184     0.08700
H860        H  0.52963564  0.27338099  0.49943004     0.12300
H861        H  0.54018000  0.18100427  0.61051773     0.12300
H862        H  0.54352501  0.28672968  0.63214854     0.12000
H863        H  0.54572020  0.39982254  0.62315586     0.12600
H864        H  0.53722979  0.37585856  0.52009532     0.14500
C865        C  0.42594193  0.57614288  0.63662521    -0.05500
C866        C  0.44918891  0.59270455  0.65513328    -0.05400
C867        C  0.47667905  0.57445398  0.64587005    -0.23600
C868        C  0.48137842  0.53967190  0.61781048     0.18600
C869        C  0.45804843  0.52194064  0.59944484     0.15800
C870        C  0.43053654  0.54003198  0.60898372    -0.18600
C871        C  0.46256393  0.48652436  0.57176091    -0.20500
C872        C  0.48993439  0.47044947  0.56174910    -0.13000
C873        C  0.51376398  0.49005196  0.57874443     0.03700
C874        C  0.50897233  0.52267403  0.60778224    -0.25200
H875        H  0.44613275  0.62032278  0.67663401     0.08700
H876        H  0.49425849  0.58828800  0.66039709     0.12300
H877        H  0.41273618  0.52666225  0.59464272     0.12300
H878        H  0.44492697  0.47162578  0.55765062     0.12000
H879        H  0.49261084  0.44324574  0.54006314     0.12600
H880        H  0.52638421  0.53425926  0.62305087     0.14500
C881        C  0.41081253  0.02766836  0.62079774    -0.05500
C882        C  0.40855490  0.06024369  0.59088515    -0.05400
C883        C  0.43245927  0.08255159  0.57568361    -0.23600
C884        C  0.45902481  0.07267822  0.59017990     0.18600
C885        C  0.46145981  0.04140060  0.62063643     0.15800
C886        C  0.43733150  0.01888494  0.63578235    -0.18600
C887        C  0.48801792  0.03282864  0.63524349    -0.20500
C888        C  0.51215237  0.05097688  0.61881938    -0.13000
C889        C  0.51038169  0.07615252  0.58682819     0.03700
C890        C  0.48327237  0.09153626  0.57408709    -0.25200
H891        H  0.38830190  0.06754946  0.57891608     0.08700
H892        H  0.43023042  0.10648344  0.55232418     0.12300
H893        H  0.43920671  0.99422085  0.65899104     0.12300
H894        H  0.49019991  0.01118077  0.65916968     0.12000
H895        H  0.53205903  0.04430474  0.63141072     0.12600
H896        H  0.48125423  0.11427163  0.55038548     0.14500
C897        C  0.02590827  0.17921940  0.62583993    -0.05500
C898        C  0.00108018  0.21473092  0.61660739    -0.05400
C899        C  0.99962246  0.28011935  0.61795112    -0.23600
C900        C  0.02284117  0.31214811  0.62855598     0.18600
C901        C  0.04710797  0.27763465  0.63951610     0.15800
C902        C  0.04802968  0.21192460  0.63947354    -0.18600
C903        C  0.07022377  0.30936317  0.65015458    -0.20500
C904        C  0.06996377  0.37463777  0.64831177    -0.13000
C905        C  0.04644322  0.41134577  0.63592484     0.03700
C906        C  0.02216305  0.37804517  0.62818747    -0.25200
H907        H  0.98224121  0.19264862  0.60904170     0.08700
H908        H  0.98039730  0.30566700  0.61025006     0.12300
H909        H  0.06656335  0.18589530  0.64888802     0.12300
H910        H  0.08891501  0.28360051  0.65931623     0.12000
H911        H  0.08870451  0.39456360  0.65694302     0.12600
H912        H  0.00247058  0.40260420  0.62161196     0.14500
C913        C  0.05512594  0.07969651  0.60792012    -0.05500
C914        C  0.06002541  0.01387341  0.60703495    -0.05400
C915        C  0.08533033  0.98710018  0.59528721    -0.23600
C916        C  0.10651548  0.02529442  0.58393357     0.18600
C917        C  0.10128449  0.09093060  0.58217594     0.15800
C918        C  0.07524166  0.11736166  0.59267907    -0.18600
C919        C  0.12268253  0.12934913  0.57124203    -0.20500
C920        C  0.14941188  0.10314260  0.56374161    -0.13000
C921        C  0.15488318  0.03799712  0.56592821     0.03700
C922        C  0.13309336  0.99910634  0.57516374    -0.25200
H923        H  0.04466990  0.98300885  0.61715427     0.08700
H924        H  0.08873990  0.93657312  0.59631304     0.12300
H925        H  0.07141947  0.16735728  0.58963323     0.12300
H926        H  0.11907689  0.17979523  0.56964087     0.12000
H927        H  0.16588741  0.13382435  0.55631564     0.12600
H928        H  0.13721273  0.94877425  0.57692983     0.14500
C929        C  0.07636798  0.50335120  0.61884459    -0.05500
C930        C  0.09943304  0.50240464  0.64092255    -0.05400
C931        C  0.12589537  0.52077198  0.63206927    -0.23600
C932        C  0.13070372  0.54263842  0.60080944     0.18600
C933        C  0.10857219  0.54615542  0.57789078     0.15800
C934        C  0.08144007  0.52711172  0.58703061    -0.18600
C935        C  0.11409086  0.56982947  0.54652841    -0.20500
C936        C  0.14105588  0.59024802  0.53852615    -0.13000
C937        C  0.16284873  0.58682611  0.56172484     0.03700
C938        C  0.15740706  0.56252738  0.59266543    -0.25200
H939        H  0.09695403  0.48968032  0.66624127     0.08700
H940        H  0.14253600  0.51912880  0.65012758     0.12300
H941        H  0.06474567  0.53255684  0.56937965     0.12300
H942        H  0.09758418  0.57298585  0.52834462     0.12000
H943        H  0.14486955  0.60858083  0.51432573     0.12600
H944        H  0.17398667  0.55986135  0.61082233     0.14500
C945        C  0.91511476  0.97488006  0.57084401    -0.05500
C946        C  0.92160477  0.95138011  0.60211050    -0.05400
C947        C  0.94533400  0.97036871  0.61831410    -0.23600
C948        C  0.96296238  0.01327437  0.60352471     0.18600
C949        C  0.95696642  0.03654979  0.57186743     0.15800
C950        C  0.93294602  0.01736206  0.55567361    -0.18600
C951        C  0.97517900  0.07827014  0.55705044    -0.20500
C952        C  0.99842505  0.09858354  0.57401921    -0.13000
C953        C  0.00341803  0.07959932  0.60662214     0.03700
C954        C  0.98629652  0.03357981  0.62023928    -0.25200
H955        H  0.90807527  0.91886914  0.61429013     0.08700
H956        H  0.94969134  0.95208382  0.64260300     0.12300
H957        H  0.92806605  0.03565043  0.53149625     0.12300
H958        H  0.97132360  0.09562205  0.53250021     0.12000
H959        H  0.01205141  0.13129099  0.56214123     0.12600
H960        H  0.99090602  0.01266072  0.64384548     0.14500
C961        C  0.92087300  0.57954689  0.57571626    -0.05500
C962        C  0.92588309  0.60670322  0.60567078    -0.05400
C963        C  0.95182421  0.59722167  0.62107205    -0.23600
C964        C  0.97349507  0.56056873  0.60680302     0.18600
C965        C  0.96932582  0.53431891  0.57629468     0.15800
C966        C  0.94282212  0.54362330  0.56083193    -0.18600
C967        C  0.99152590  0.49820410  0.56245145    -0.20500
C968        C  0.01706358  0.48635728  0.57931961    -0.13000
C969        C  0.02119795  0.50975667  0.61074301     0.03700
C970        C  0.99879315  0.54812661  0.62357272    -0.25200
H971        H  0.90952417  0.63487811  0.61755699     0.08700
H972        H  0.95479782  0.61801031  0.64445927     0.12300
H973        H  0.93925898  0.52288487  0.53755894     0.12300
H974        H  0.98884529  0.47738190  0.53903586     0.12000
H975        H  0.03289639  0.45477323  0.56879490     0.12600
H976        H  0.99956953  0.56616031  0.64770476     0.14500
C977        C  0.55572337  0.99733264  0.91891785    -0.05500
C978        C  0.57894438  0.03157807  0.92893300    -0.05400
C979        C  0.58057473  0.05409307  0.96021622    -0.23600
C980        C  0.55951710  0.04196378  0.98280038     0.18600
C981        C  0.53731640  0.00398354  0.97440923     0.15800
C982        C  0.53586735  0.98085903  0.94289729    -0.18600
C983        C  0.51681246  0.99035351  0.99761600    -0.20500
C984        C  0.51553523  0.01096979  0.52461370    -0.13000
C985        C  0.53612198  0.05360646  0.53313345     0.03700
C986        C  0.55824699  0.06304944  0.51098346    -0.25200
H987        H  0.59636894  0.04117296  0.91305891     0.08700
H988        H  0.59829721  0.08152036  0.96665771     0.12300
H989        H  0.51868143  0.95178695  0.93652929     0.12300
H990        H  0.50001571  0.95974354  0.99195038     0.12000
H991        H  0.49952856  0.99676627  0.54147135     0.12600
H992        H  0.57506240  0.09313832  0.51737147     0.14500
C993        C  0.52492485  0.99732573  0.86698968    -0.05500
C994        C  0.51986769  0.98067301  0.83457492    -0.05400
C995        C  0.49423288  0.99701998  0.81913898    -0.23600
C996        C  0.47299420  0.03148394  0.83543356     0.18600
C997        C  0.47830371  0.05222976  0.86698953     0.15800
C998        C  0.50431309  0.03680155  0.88207469    -0.18600
C999        C  0.45728634  0.08735735  0.88332576    -0.20500
C1000       C  0.43108251  0.10093824  0.86879446    -0.13000
C1001       C  0.42535768  0.08004051  0.83756014     0.03700
C1002       C  0.44653628  0.04552653  0.82083541    -0.25200
H1003       H  0.53555996  0.95248723  0.82162913     0.08700
H1004       H  0.49083842  0.98159515  0.79468661     0.12300
H1005       H  0.50794650  0.05575407  0.90562438     0.12300
H1006       H  0.46097378  0.10369140  0.90755176     0.12000
H1007       H  0.41517281  0.12768091  0.88216229     0.12600
H1008       H  0.44243004  0.02956217  0.79662538     0.14500
C1009       C  0.54816675  0.49054231  0.53056296    -0.05500
C1010       C  0.57268019  0.46846791  0.51406663    -0.05400
C1011       C  0.57662618  0.49380484  0.99345940    -0.23600
C1012       C  0.55665385  0.53167476  0.97626527     0.18600
C1013       C  0.53163908  0.55283302  0.99181984     0.15800
C1014       C  0.53011987  0.53558111  0.51432374    -0.18600
C1015       C  0.51138834  0.58957118  0.97447498    -0.20500
C1016       C  0.51527158  0.60248875  0.94159402    -0.13000
C1017       C  0.53972748  0.57988603  0.92508185     0.03700
C1018       C  0.56114469  0.54771104  0.94361774    -0.25200
H1019       H  0.58762770  0.43563602  0.52594452     0.08700
H1020       H  0.59605246  0.47723924  0.98198190     0.12300
H1021       H  0.51228041  0.55773928  0.52659716     0.12300
H1022       H  0.49209071  0.60664825  0.98605607     0.12000
H1023       H  0.49861109  0.62883941  0.92860986     0.12600
H1024       H  0.58126093  0.53392597  0.93308399     0.14500
C1025       C  0.42601319  0.46981160  0.83601743    -0.05500
C1026       C  0.43098229  0.45017838  0.86830861    -0.05400
C1027       C  0.45563906  0.46531586  0.88411480    -0.23600
C1028       C  0.47563023  0.50076718  0.86794503     0.18600
C1029       C  0.47142365  0.51842759  0.83506868     0.15800
C1030       C  0.44666754  0.50261614  0.81921873    -0.18600
C1031       C  0.49176172  0.55277128  0.81888279    -0.20500
C1032       C  0.51500145  0.57321856  0.83574458    -0.13000
C1033       C  0.51803769  0.56149619  0.86942958     0.03700
C1034       C  0.49918088  0.52070144  0.88455980    -0.25200
H1035       H  0.41544555  0.42444211  0.88165408     0.08700
H1036       H  0.45863977  0.45099704  0.90928947     0.12300
H1037       H  0.44311209  0.51745003  0.79419530     0.12300
H1038       H  0.48927076  0.56548161  0.79344321     0.12000
H1039       H  0.52987940  0.60163915  0.82290574     0.12600
H1040       H  0.50212712  0.50513607  0.90948201     0.14500
C1041       C  0.53910667  0.66525547  0.88453103    -0.05500
C1042       C  0.51445484  0.69720600  0.87204750    -0.05400
C1043       C  0.51197112  0.76236082  0.87044636    -0.23600
C1044       C  0.53384070  0.79790142  0.88146980     0.18600
C1045       C  0.55799218  0.76764555  0.89557773     0.15800
C1046       C  0.56010527  0.70188912  0.89790792    -0.18600
C1047       C  0.57953238  0.80378249  0.90715128    -0.20500
C1048       C  0.57758660  0.86911448  0.90346025    -0.13000
C1049       C  0.55421441  0.90031834  0.88773136     0.03700
C1050       C  0.53168657  0.86331998  0.87860690    -0.25200
H1051       H  0.49634276  0.67267244  0.86433793     0.08700
H1052       H  0.49286066  0.78498973  0.86041125     0.12300
H1053       H  0.57844017  0.67878969  0.90947860     0.12300
H1054       H  0.59807620  0.78153975  0.91865093     0.12000
H1055       H  0.59472787  0.89565527  0.91241380     0.12600
H1056       H  0.51205800  0.88429451  0.86940376     0.14500
C1057       C  0.67180726  0.04211791  0.81190158    -0.06300
C1058       C  0.67134235  0.97684274  0.81648493    -0.05400
C1059       C  0.64692630  0.94919794  0.82760407    -0.23600
C1060       C  0.62292548  0.98669210  0.83550821     0.18600
C1061       C  0.62319117  0.05235616  0.83065373     0.15800
C1062       C  0.64738981  0.07955762  0.81811412    -0.18600
C1063       C  0.59964611  0.08992587  0.83953631    -0.20500
C1064       C  0.57693125  0.06328596  0.85521734    -0.13000
C1065       C  0.57680650  0.99804288  0.86203445     0.03700
C1066       C  0.59927241  0.95979423  0.84962571    -0.25200
H1067       H  0.68994835  0.94721050  0.81151052     0.08700
H1068       H  0.64718388  0.89875698  0.83117981     0.12300
H1069       H  0.64771850  0.13001246  0.81474171     0.12300
H1070       H  0.59933355  0.14032276  0.83575930     0.12000
H1071       H  0.55984773  0.09426573  0.86359605     0.12600
H1072       H  0.59937817  0.90939009  0.85189788     0.14500
C1073       C  0.66613254  0.51700479  0.82272483    -0.05500
C1074       C  0.65970992  0.58134080  0.81737621    -0.05400
C1075       C  0.63413699  0.60879132  0.82804033    -0.23600
C1076       C  0.61449824  0.57237366  0.84426439     0.18600
C1077       C  0.62059264  0.50755225  0.84937628     0.15800
C1078       C  0.64640989  0.48029280  0.83874932    -0.18600
C1079       C  0.60060647  0.47094424  0.86465484    -0.20500
C1080       C  0.57528750  0.49863722  0.87581079    -0.13000
C1081       C  0.56961874  0.56417543  0.87328116     0.03700
C1082       C  0.58898104  0.59991587  0.85555528    -0.25200
H1083       H  0.67453942  0.61059627  0.80500268     0.08700
H1084       H  0.62980793  0.65856967  0.82377168     0.12300
H1085       H  0.65106623  0.43053990  0.84278599     0.12300
H1086       H  0.60459333  0.42087313  0.86815273     0.12000
H1087       H  0.56034250  0.46898408  0.88771014     0.12600
H1088       H  0.58448931  0.64903358  0.85003898     0.14500
C1089       C  0.04790172  0.00385178  0.77725501    -0.05500
C1090       C  0.07169037  0.98772954  0.75795766    -0.05400
C1091       C  0.07288372  0.00516319  0.72532461    -0.23600
C1092       C  0.04997022  0.03783526  0.71049773     0.18600
C1093       C  0.02540855  0.05212728  0.72864208     0.15800
C1094       C  0.02425848  0.03422161  0.76159059    -0.18600
C1095       C  0.00243970  0.08443224  0.71352786    -0.20500
C1096       C  0.00390204  0.10237394  0.68083340    -0.13000
C1097       C  0.02793451  0.08647097  0.66184141     0.03700
C1098       C  0.05130628  0.05577009  0.67768611    -0.25200
H1099       H  0.08964131  0.96135196  0.76848377     0.08700
H1100       H  0.09173227  0.99260332  0.71162223     0.12300
H1101       H  0.00446645  0.04192642  0.77410735     0.12300
H1102       H  0.98340603  0.09633321  0.72703647     0.12000
H1103       H  0.98582575  0.12763201  0.66994041     0.12600
H1104       H  0.07096541  0.04642799  0.66507216     0.14500
C1105       C  0.04450445  0.51638365  0.66583299    -0.05500
C1106       C  0.04904134  0.58137424  0.66775302    -0.05400
C1107       C  0.05042892  0.61068359  0.69748154    -0.23600
C1108       C  0.04740918  0.57600620  0.72627329     0.18600
C1109       C  0.04209456  0.51156213  0.72482610     0.15800
C1110       C  0.04017242  0.48251338  0.69489921    -0.18600
C1111       C  0.03945519  0.47639197  0.75340606    -0.20500
C1112       C  0.04162431  0.50479031  0.78311534    -0.13000
C1113       C  0.04594450  0.56970179  0.78537883     0.03700
C1114       C  0.04970658  0.60462042  0.75643330    -0.25200
H1115       H  0.05211964  0.60917308  0.64586396     0.08700
H1116       H  0.05429541  0.66023886  0.69792149     0.12300
H1117       H  0.03596355  0.43321857  0.69467523     0.12300
H1118       H  0.03570696  0.42678035  0.75284420     0.12000
H1119       H  0.03912985  0.47614235  0.80483204     0.12600
H1120       H  0.05465201  0.65340436  0.75693775     0.14500
C1121       C  0.04686901  0.90690091  0.80836153    -0.05500
C1122       C  0.02337363  0.88431758  0.79165839    -0.05400
C1123       C  0.01919160  0.82043655  0.78951200    -0.23600
C1124       C  0.03768537  0.77691131  0.80515031     0.18600
C1125       C  0.06131246  0.79832217  0.82170811     0.15800
C1126       C  0.06670277  0.86237061  0.82158471    -0.18600
C1127       C  0.07840013  0.75570971  0.83972888    -0.20500
C1128       C  0.07262744  0.69251457  0.84069309    -0.13000
C1129       C  0.05105309  0.66849031  0.82128887     0.03700
C1130       C  0.03273214  0.71249534  0.80491974    -0.25200
H1131       H  0.00753875  0.91669559  0.78103424     0.08700
H1132       H  0.00085543  0.80531378  0.77671955     0.12300
H1133       H  0.08578847  0.87655754  0.83291967     0.12300
H1134       H  0.09574533  0.77150265  0.85403574     0.12000
H1135       H  0.08547503  0.66303807  0.85702142     0.12600
H1136       H  0.01482751  0.69636851  0.79168857     0.14500
C1137       C  0.16589347  0.09559706  0.86762374    -0.05500
C1138       C  0.15788474  0.12506986  0.83804130    -0.05400
C1139       C  0.13306372  0.11009314  0.82238470    -0.23600
C1140       C  0.11564239  0.06518792  0.83594618     0.18600
C1141       C  0.12299266  0.03608206  0.86597532     0.15800
C1142       C  0.14817587  0.05116891  0.88163299    -0.18600
C1143       C  0.10483717  0.99296323  0.87983033    -0.20500
C1144       C  0.08040977  0.97687131  0.86340261    -0.13000
C1145       C  0.07405891  0.00084403  0.83188121     0.03700
C1146       C  0.09116001  0.04870974  0.81964445    -0.25200
H1147       H  0.17104688  0.15937640  0.82671448     0.08700
H1148       H  0.12767591  0.13315554  0.79940560     0.12300
H1149       H  0.15399610  0.02829726  0.90453874     0.12300
H1150       H  0.10958007  0.97136464  0.90332629     0.12000
H1151       H  0.06692630  0.94352258  0.87494543     0.12600
H1152       H  0.08569774  0.07392133  0.79734762     0.14500
C1153       C  0.17348712  0.50762681  0.86799573    -0.05500
C1154       C  0.17431538  0.54262700  0.83883937    -0.05400
C1155       C  0.14948198  0.56176422  0.82288547    -0.23600
C1156       C  0.12342310  0.54642353  0.83593695     0.18600
C1157       C  0.12218261  0.51005926  0.86479458     0.15800
C1158       C  0.14735252  0.49045500  0.88068237    -0.18600
C1159       C  0.09579421  0.49477189  0.87729144    -0.20500
C1160       C  0.07086501  0.51900001  0.86254535    -0.13000
C1161       C  0.07198775  0.56029281  0.83543901     0.03700
C1162       C  0.09859682  0.56922359  0.82109282    -0.25200
H1163       H  0.19422107  0.55580690  0.82846185     0.08700
H1164       H  0.15064287  0.58961295  0.80067871     0.12300
H1165       H  0.14659692  0.46284786  0.90300640     0.12300
H1166       H  0.09443071  0.46498208  0.89878261     0.12000
H1167       H  0.05110197  0.50510669  0.87267766     0.12600
H1168       H  0.09994452  0.59856304  0.79938666     0.14500
C1169       C  0.02179633  0.99985927  0.83322114    -0.05500
C1170       C  0.00863762  0.95665258  0.85425287    -0.05400
C1171       C  0.98322180  0.97216457  0.86935963    -0.23600
C1172       C  0.97029773  0.03142363  0.86425057     0.18600
C1173       C  0.98449496  0.07781662  0.84656811     0.15800
C1174       C  0.01108472  0.06268691  0.83290601    -0.18600
C1175       C  0.97099758  0.13708822  0.84125089    -0.20500
C1176       C  0.94313681  0.14856036  0.85164828    -0.13000
C1177       C  0.92886695  0.10157459  0.86837022     0.03700
C1178       C  0.94294402  0.04399579  0.87560924    -0.25200
H1179       H  0.01748486  0.90962184  0.85861676     0.08700
H1180       H  0.97310102  0.93679382  0.88390504     0.12300
H1181       H  0.02208641  0.09821973  0.81946152     0.12300
H1182       H  0.98149759  0.17351465  0.82791171     0.12000
H1183       H  0.93268269  0.19387749  0.84646645     0.12600
H1184       H  0.93208642  0.00774160  0.88873539     0.14500
C1185       C  0.01734199  0.58645171  0.83609424    -0.05500
C1186       C  0.01333440  0.59252217  0.86973360    -0.05400
C1187       C  0.98837060  0.57380464  0.88456453    -0.23600
C1188       C  0.96630670  0.55209543  0.86579822     0.18600
C1189       C  0.96858397  0.55413871  0.83176245     0.15800
C1190       C  0.99339501  0.57332876  0.81730594    -0.18600
C1191       C  0.94629442  0.53538020  0.81252102    -0.20500
C1192       C  0.92205309  0.51324327  0.82696419    -0.13000
C1193       C  0.91982183  0.50903539  0.86081736     0.03700
C1194       C  0.94195778  0.52880565  0.88023441    -0.25200
H1195       H  0.03019256  0.60824098  0.88476309     0.08700
H1196       H  0.98655466  0.57516101  0.91070105     0.12300
H1197       H  0.99398310  0.57615146  0.79110945     0.12300
H1198       H  0.94777270  0.53698596  0.78631326     0.12000
H1199       H  0.90518153  0.49842224  0.81165058     0.12600
H1200       H  0.94008816  0.52662895  0.90640347     0.14500
loop_ 
_geom_bond_atom_site_label_1 
_geom_bond_atom_site_label_2 
_geom_bond_distance 
_geom_bond_site_symmetry_2 
_ccdc_geom_bond_type 
In1           O3   2.243       .  S
In1           O4   2.243       .  S
In1          O12   2.261       .  S
In1           O6   2.233       .  S
In1           O8   2.255       .  S
In1           O9   2.253       .  S
In1          O10   2.251       .  S
In1          O13   2.248       .  S
C2            O8   1.261       .  A
C2           O10   1.264       .  A
C2           C61   1.470       .  S
O3           C11   1.261       .  A
O4           C11   1.258       .  A
C5           O12   1.262       .  A
C5            O6   1.260       .  A
C5          C593   1.472       .  S
C7            O9   1.257       .  A
C7           O13   1.258       .  A
C7          C119   1.462       .  S
C11          C20   1.459       .  S
In14         O16   2.248       .  S
In14         O17   2.255       .  S
In14         O25   2.249       .  S
In14         O19   2.238       .  S
In14         O21   2.270       .  S
In14         O22   2.253       .  S
In14         O23   2.242       .  S
In14         O26   2.246       .  S
C15          O21   1.259       .  A
C15          O23   1.256       .  A
C15          C69   1.465       .  S
O16          C24   1.260       .  A
O17          C24   1.262       .  A
C18          O25   1.262       .  A
C18          O19   1.262       .  A
C18         C577   1.473       .  S
C20          O22   1.259       .  A
C20          O26   1.255       .  A
C24         C132   1.467       .  S
In27         O29   2.253       .  S
In27         O30   2.280       .  S
In27         O38   2.245       .  S
In27         O32   2.216       .  S
In27         O34   2.232       .  S
In27         O35   2.266       .  S
In27         O36   2.264       .  S
In27         O39   2.252       .  S
C28          O34   1.257       .  A
C28          O36   1.265       .  A
C28          C84   1.464       .  S
O29          C37   1.255       .  A
O30          C37   1.260       .  A
C31          O38   1.261       .  A
C31          O32   1.259       .  A
C31         C553   1.466       .  S
C33          O35   1.262       .  A
C33          O39   1.257       .  A
C33          C50   1.470       .  S
C37         C145   1.472       .  S
In40         O42   2.262       .  S
In40         O43   2.256       .  S
In40         O51   2.264       .  S
In40         O45   2.259       .  S
In40         O47   2.256       .  S
In40         O48   2.242       .  S
In40         O49   2.258       .  S
In40         O52   2.249       .  S
C41          O47   1.258       .  A
C41          O49   1.259       .  A
C41          C97   1.467       .  S
O42          C50   1.262       .  A
O43          C50   1.258       .  A
C44          O51   1.259       .  A
C44          O45   1.262       .  A
C44         C537   1.483       .  S
C46          O48   1.261       .  A
C46          O52   1.261       .  A
C46         C158   1.462       .  S
C53         C513   1.548       .  S
C53         C529   1.555       .  S
C53         C561   1.547       .  S
C53         C585   1.553       .  S
C54         C489   1.556       .  S
C54         C521   1.556       .  S
C54         C545   1.562       .  S
C54         C569   1.554       .  S
In55         O57   2.267       .  S
In55         O58   2.259       .  S
In55         O66   2.245       .  S
In55         O60   2.264       .  S
In55         O62   2.251       .  S
In55         O63   2.271       .  S
In55         O64   2.283       .  S
In55         O67   2.254       .  S
C56          O62   1.261       .  A
C56          O64   1.264       .  A
C56          C74   1.479       .  S
O57          C65   1.261       .  A
O58          C65   1.256       .  A
C59          O66   1.259       .  A
C59          O60   1.262       .  A
C59         C473   1.478       .  S
C61          O63   1.260       .  A
C61          O67   1.257       .  A
C65         C201   1.471       .  S
In68         O70   2.255       .  S
In68         O71   2.268       .  S
In68         O79   2.251       .  S
In68         O73   2.242       .  S
In68         O75   2.241       .  S
In68         O76   2.279       .  S
In68         O77   2.269       .  S
In68         O80   2.248       .  S
C69          O75   1.256       .  A
C69          O77   1.260       .  A
O70          C78   1.256       .  A
O71          C78   1.262       .  A
C72          O79   1.262       .  A
C72          O73   1.260       .  A
C72         C457   1.473       .  S
C74          O76   1.265       .  A
C74          O80   1.261       .  A
C78         C214   1.471       .  S
C81         C417   1.555       .  S
C81         C433   1.553       .  S
C81         C441   1.557       .  S
C81         C481   1.559       .  S
C82         C377   1.558       .  S
C82         C393   1.558   1_565  S
C82         C449   1.553       .  S
C82         C465   1.553   1_565  S
In83         O85   2.271       .  S
In83         O86   2.248       .  S
In83         O94   2.229       .  S
In83         O88   2.248       .  S
In83         O90   2.256       .  S
In83         O91   2.250       .  S
In83         O92   2.243       .  S
In83         O95   2.257       .  S
C84          O90   1.257       .  A
C84          O92   1.260       .  A
O85          C93   1.262       .  A
O86          C93   1.259       .  A
C87          O94   1.260       .  A
C87          O88   1.263       .  A
C87         C425   1.472       .  S
C89          O91   1.256       .  A
C89          O95   1.257       .  A
C89         C106   1.463       .  S
C93         C186   1.471       .  S
In96         O98   2.263       .  S
In96         O99   2.259       .  S
In96        O107   2.259       .  S
In96        O101   2.231       .  S
In96        O103   2.258       .  S
In96        O104   2.237       .  S
In96        O105   2.260       .  S
In96        O108   2.254       .  S
C97         O103   1.257       .  A
C97         O105   1.258       .  A
O98         C106   1.255       .  A
O99         C106   1.255       .  A
C100        O107   1.263       .  A
C100        O101   1.262       .  A
C100        C401   1.477       .  S
C102        O104   1.260       .  A
C102        O108   1.261       .  A
C102        C169   1.464       .  S
In109       O120   2.230       .  S
In109       O114   2.261       .  S
In109       O116   2.258       .  S
In109       O117   2.246       .  S
In109       O118   2.243       .  S
In109       O121   2.266       .  S
In109       O711   2.244   1_554  S
In109       O712   2.250       .  S
C110        O116   1.258       .  A
C110        O118   1.257       .  A
C110        C128   1.460       .  S
O111       In709   2.235       .  S
O111        C119   1.258       .  A
O112       In709   2.255       .  S
O112        C119   1.262       .  A
C113        O120   1.262       .  A
C113        O114   1.263       .  A
C113        C361   1.479       .  S
C115        O117   1.257       .  A
C115        O121   1.258       .  A
C115        C197   1.465       .  S
In122       O124   2.249   1_565  S
In122       O133   2.219       .  S
In122       O127   2.251       .  S
In122       O129   2.250       .  S
In122       O130   2.241       .  S
In122       O131   2.248       .  S
In122       O134   2.255       .  S
In122       O725   2.244   1_554  S
C123        O129   1.257       .  A
C123        O131   1.260       .  A
C123        C205   1.463       .  S
O124        C732   1.261   1_554  A
O125       In722   2.250       .  S
O125        C132   1.263   1_565  A
C126        O133   1.260       .  A
C126        O127   1.261       .  A
C126        C345   1.468       .  S
C128        O130   1.257       .  A
C128        O134   1.258       .  A
C132        O724   1.261       .  A
In135       O137   2.265       .  S
In135       O146   2.250       .  S
In135       O140   2.216       .  S
In135       O142   2.256       .  S
In135       O143   2.268       .  S
In135       O144   2.260       .  S
In135       O147   2.241       .  S
In135       O738   2.263   1_554  S
C136        O142   1.258       .  A
C136        O144   1.262       .  A
C136        C177   1.471       .  S
O137        C745   1.260   1_554  A
O138       In735   2.252       .  S
O138        C145   1.262       .  A
C139        O146   1.262       .  A
C139        O140   1.262       .  A
C139        C337   1.470       .  S
C141        O143   1.262       .  A
C141        O147   1.258       .  A
C141        C149   1.469       .  S
C145        O737   1.260       .  A
In148       O159   2.250       .  S
In148       O153   2.248   1_565  S
In148       O155   2.241       .  S
In148       O156   2.245       .  S
In148       O157   2.263       .  S
In148       O160   2.270       .  S
In148       O750   2.257   1_554  S
In148       O751   2.247   1_565  S
C149        O155   1.261       .  A
C149        O157   1.263       .  A
O150       In748   2.253       .  S
O150        C158   1.261   1_565  A
O151       In748   2.241   1_545  S
O151        C158   1.258       .  A
C152        O159   1.261   1_545  A
C152        O153   1.259       .  A
C152        C321   1.477       .  S
C154        O156   1.256       .  A
C154        O160   1.256       .  A
C154        C164   1.463       .  S
C161        C297   1.548       .  S
C161        C313   1.555       .  S
C161        C353   1.545       .  S
C161        C497   1.555       .  S
C162        C305   1.572       .  S
C162        C329   1.567       .  S
C162        C369   1.569       .  S
C162        C505   1.548       .  S
In163       O165   2.232       .  S
In163       O166   2.253       .  S
In163       O174   2.248       .  S
In163       O168   2.229   1_565  S
In163       O170   2.223       .  S
In163       O171   2.255       .  S
In163       O172   2.261       .  S
In163       O175   2.240   1_565  S
C164        O170   1.257       .  A
C164        O172   1.264       .  A
O165        C173   1.261       .  A
O166        C173   1.261       .  A
C167        O174   1.263   1_545  A
C167        O168   1.260       .  A
C167        C281   1.473       .  S
C169        O171   1.260   1_545  A
C169        O175   1.259       .  A
C173        C182   1.463       .  S
In176       O178   2.249       .  S
In176       O179   2.266       .  S
In176       O187   2.235       .  S
In176       O181   2.232       .  S
In176       O183   2.253       .  S
In176       O184   2.265       .  S
In176       O185   2.270       .  S
In176       O188   2.234       .  S
C177        O183   1.257       .  A
C177        O185   1.262       .  A
O178        C186   1.259       .  A
O179        C186   1.260       .  A
C180        O187   1.261       .  A
C180        O181   1.262       .  A
C180        C265   1.471       .  S
C182        O184   1.262       .  A
C182        O188   1.256       .  A
C189        C241   1.551       .  S
C189        C257   1.550       .  S
C189        C273   1.546       .  S
C189        C409   1.551       .  S
C190        C217   1.549       .  S
C190        C249   1.554       .  S
C190        C289   1.548       .  S
C190        C385   1.553       .  S
In191       O193   2.253       .  S
In191       O194   2.270       .  S
In191       O202   2.219       .  S
In191       O196   2.264       .  S
In191       O198   2.248       .  S
In191       O199   2.266       .  S
In191       O200   2.275       .  S
In191       O203   2.242       .  S
C192        O198   1.261       .  A
C192        O200   1.264       .  A
C192        C210   1.477       .  S
O193        C201   1.256       .  A
O194        C201   1.263       .  A
C195        O202   1.260       .  A
C195        O196   1.264       .  A
C195        C233   1.471       .  S
C197        O199   1.259       .  A
C197        O203   1.256       .  A
In204       O206   2.260   1_565  S
In204       O207   2.265       .  S
In204       O215   2.244       .  S
In204       O209   2.226   1_565  S
In204       O211   2.242       .  S
In204       O212   2.280       .  S
In204       O213   2.260       .  S
In204       O216   2.250       .  S
C205        O211   1.255       .  A
C205        O213   1.261       .  A
O206        C214   1.256       .  A
O207        C214   1.261   1_565  A
C208        O215   1.262       .  A
C208        O209   1.259   1_565  A
C208        C225   1.467   1_565  S
C210        O212   1.264       .  A
C210        O216   1.259       .  A
C217        C218   1.415   1_545  A
C217        C222   1.414       .  A
C218        C219   1.394       .  A
C218        H227   1.083       .  S
C219        C220   1.397   1_565  A
C219        H228   1.084       .  S
C220        C226   1.402   1_545  A
C220        C221   1.413       .  A
C221        C223   1.401       .  A
C221        C222   1.401       .  A
C222        H229   1.081       .  S
C223        C224   1.394       .  A
C223        H230   1.084       .  S
C224        C225   1.403       .  A
C224        H231   1.083       .  S
C225        C226   1.402   1_545  A
C226        H232   1.085       .  S
C233        C234   1.403       .  A
C233        C238   1.406       .  A
C234        C235   1.391       .  A
C234        H243   1.084       .  S
C235        C236   1.400       .  A
C235        H244   1.084       .  S
C236        C242   1.398       .  A
C236        C237   1.412       .  A
C237        C239   1.401       .  A
C237        C238   1.409       .  A
C238        H245   1.084       .  S
C239        C240   1.400       .  A
C239        H246   1.083       .  S
C240        C241   1.415       .  A
C240        H247   1.083       .  S
C241        C242   1.414       .  A
C242        H248   1.080       .  S
C249        C250   1.415       .  A
C249        C254   1.416       .  A
C250        C251   1.391       .  A
C250        H259   1.079       .  S
C251        C252   1.396       .  A
C251        H260   1.084       .  S
C252        C258   1.399       .  A
C252        C253   1.409       .  A
C253        C255   1.401       .  A
C253        C254   1.406       .  A
C254        H261   1.084       .  S
C255        C256   1.400       .  A
C255        H262   1.084       .  S
C256        C257   1.414       .  A
C256        H263   1.083       .  S
C257        C258   1.411       .  A
C258        H264   1.082       .  S
C265        C266   1.405       .  A
C265        C270   1.401       .  A
C266        C267   1.398       .  A
C266        H275   1.083       .  S
C267        C268   1.403       .  A
C267        H276   1.083       .  S
C268        C274   1.406       .  A
C268        C269   1.413       .  A
C269        C271   1.394       .  A
C269        C270   1.399       .  A
C270        H277   1.084       .  S
C271        C272   1.389       .  A
C271        H278   1.084       .  S
C272        C273   1.416       .  A
C272        H279   1.082       .  S
C273        C274   1.412       .  A
C274        H280   1.081       .  S
C281        C282   1.405       .  A
C281        C286   1.404       .  A
C282        C283   1.395       .  A
C282        H291   1.083       .  S
C283        C284   1.400       .  A
C283        H292   1.084       .  S
C284        C290   1.398       .  A
C284        C285   1.411       .  A
C285        C287   1.399       .  A
C285        C286   1.402       .  A
C286        H293   1.084   1_545  S
C287        C288   1.396       .  A
C287        H294   1.084       .  S
C288        C289   1.415       .  A
C288        H295   1.079       .  S
C289        C290   1.412       .  A
C290        H296   1.084       .  S
C297        C298   1.417       .  A
C297        C302   1.409       .  A
C298        C299   1.396       .  A
C298        H307   1.080   1_455  S
C299        C300   1.398       .  A
C299        H308   1.084   1_455  S
C300        C306   1.403       .  A
C300        C301   1.406       .  A
C301        C303   1.391       .  A
C301        C302   1.398       .  A
C302        H309   1.085       .  S
C303        C304   1.391       .  A
C303        H310   1.084       .  S
C304        C305   1.420       .  A
C304        H311   1.067       .  S
C305        C306   1.421       .  A
C306        H312   1.080       .  S
C313        C314   1.415       .  A
C313        C318   1.416       .  A
C314        C315   1.393   1_545  A
C314        H323   1.083   1_545  S
C315        C316   1.397   1_565  A
C315        H324   1.084       .  S
C316        C322   1.402       .  A
C316        C317   1.412       .  A
C317        C319   1.403       .  A
C317        C318   1.405       .  A
C318        H325   1.079       .  S
C319        C320   1.398       .  A
C319        H326   1.084       .  S
C320        C321   1.405       .  A
C320        H327   1.083       .  S
C321        C322   1.404       .  A
C322        H328   1.084   1_545  S
C329        C330   1.422       .  A
C329        C334   1.419       .  A
C330        C331   1.382       .  A
C330        H339   1.081       .  S
C331        C332   1.387       .  A
C331        H340   1.084       .  S
C332        C338   1.394       .  A
C332        C333   1.411       .  A
C333        C335   1.406       .  A
C333        C334   1.410       .  A
C334        H341   1.076       .  S
C335        C336   1.403       .  A
C335        H342   1.083       .  S
C336        C337   1.405       .  A
C336        H343   1.083       .  S
C337        C338   1.397       .  A
C338        H344   1.085       .  S
C345        C346   1.403       .  A
C345        C350   1.405   1_565  A
C346        C347   1.390       .  A
C346        H355   1.083       .  S
C347        C348   1.399   1_565  A
C347        H356   1.084       .  S
C348        C354   1.395       .  A
C348        C349   1.412       .  A
C349        C351   1.400       .  A
C349        C350   1.403       .  A
C350        H357   1.084       .  S
C351        C352   1.397   1_655  A
C351        H358   1.083       .  S
C352        C353   1.414       .  A
C352        H359   1.083       .  S
C353        C354   1.410   1_455  A
C354        H360   1.080       .  S
C361        C362   1.404       .  A
C361        C366   1.410       .  A
C362        C363   1.392       .  A
C362        H371   1.083       .  S
C363        C364   1.401       .  A
C363        H372   1.084       .  S
C364        C370   1.399   1_655  A
C364        C365   1.409       .  A
C365        C367   1.402       .  A
C365        C366   1.410       .  A
C366        H373   1.084       .  S
C367        C368   1.402   1_655  A
C367        H374   1.083       .  S
C368        C369   1.418       .  A
C368        H375   1.083       .  S
C369        C370   1.420       .  A
C370        H376   1.078       .  S
C377        C378   1.416   1_565  A
C377        C382   1.418       .  A
C378        C379   1.389       .  A
C378        H387   1.078       .  S
C379        C380   1.393       .  A
C379        H388   1.084       .  S
C380        C381   1.408       .  A
C380        C986   1.395       .  A
C381        C383   1.401   1_545  A
C381        C382   1.406   1_545  A
C382        H389   1.084       .  S
C383        C984   1.401   1_565  A
C383        H390   1.084       .  S
C384        C385   1.415       .  A
C384        C983   1.399   1_544  A
C384        H391   1.079       .  S
C385        C386   1.413       .  A
C386        C980   1.398   1_554  A
C386        H392   1.084       .  S
C393        C394   1.416   1_545  A
C393        C398   1.414       .  A
C394        C395   1.400   1_565  A
C394        H403   1.083       .  S
C395        C396   1.401       .  A
C395        H404   1.083   1_545  S
C396        C402   1.408       .  A
C396        C397   1.411       .  A
C397        C399   1.400       .  A
C397        C398   1.401       .  A
C398        H405   1.078       .  S
C399        C400   1.393       .  A
C399        H406   1.084       .  S
C400        C401   1.404       .  A
C400        H407   1.083       .  S
C401        C402   1.408       .  A
C402        H408   1.084       .  S
C409        C410   1.414       .  A
C409        C414   1.414       .  A
C410       C1011   1.394   1_554  A
C410        H419   1.082       .  S
C411        C412   1.400       .  A
C411       C1010   1.397       .  A
C411        H420   1.084       .  S
C412        C418   1.406       .  A
C412        C413   1.410       .  A
C413        C415   1.397       .  A
C413       C1014   1.402       .  A
C414       C1013   1.400   1_554  A
C414        H421   1.080       .  S
C415        C416   1.392       .  A
C415        H422   1.084       .  S
C416        C417   1.417       .  A
C416        H423   1.083       .  S
C417        C418   1.414       .  A
C418        H424   1.079       .  S
C425        C426   1.405       .  A
C425        C430   1.405       .  A
C426        C427   1.393       .  A
C426        H435   1.083       .  S
C427        C428   1.401       .  A
C427        H436   1.084       .  S
C428        C434   1.397       .  A
C428        C429   1.411       .  A
C429        C431   1.400       .  A
C429        C430   1.402       .  A
C430        H437   1.084       .  S
C431        C432   1.397       .  A
C431        H438   1.084       .  S
C432        C433   1.413       .  A
C432        H439   1.083       .  S
C433        C434   1.415       .  A
C434        H440   1.080       .  S
C441        C442   1.418       .  A
C441        C446   1.415       .  A
C442        C443   1.391       .  A
C442        H451   1.077       .  S
C443        C444   1.395       .  A
C443        H452   1.084       .  S
C444        C450   1.399       .  A
C444        C445   1.408       .  A
C445        C447   1.398       .  A
C445        C446   1.403       .  A
C446        H453   1.084       .  S
C447        C448   1.396       .  A
C447        H454   1.084       .  S
C448        C449   1.416       .  A
C448        H455   1.083       .  S
C449        C450   1.413       .  A
C450        H456   1.078       .  S
C457        C458   1.404   1_545  A
C457        C462   1.403       .  A
C458        C459   1.398       .  A
C458        H467   1.083       .  S
C459        C460   1.403       .  A
C459        H468   1.084       .  S
C460        C466   1.404       .  A
C460        C461   1.412   1_565  A
C461        C463   1.398       .  A
C461        C462   1.403       .  A
C462        H469   1.084       .  S
C463        C464   1.395       .  A
C463        H470   1.084       .  S
C464        C465   1.414       .  A
C464        H471   1.083       .  S
C465        C466   1.415   1_545  A
C466        H472   1.079       .  S
C473        C474   1.404       .  A
C473        C478   1.405       .  A
C474        C475   1.398       .  A
C474        H483   1.083       .  S
C475        C476   1.404       .  A
C475        H484   1.084       .  S
C476        C482   1.406       .  A
C476        C477   1.411       .  A
C477        C479   1.399       .  A
C477        C478   1.407       .  A
C478        H485   1.084       .  S
C479        C480   1.397       .  A
C479        H486   1.084       .  S
C480        C481   1.415       .  A
C480        H487   1.083       .  S
C481        C482   1.418       .  A
C482        H488   1.078       .  S
C489        C490   1.415       .  A
C489        C494   1.416   1_565  A
C490        C491   1.391       .  A
C490        H499   1.083       .  S
C491        C492   1.396   1_565  A
C491        H500   1.084       .  S
C492        C498   1.401       .  A
C492        C493   1.410       .  A
C493        C495   1.400       .  A
C493        C494   1.406       .  A
C494        H501   1.078       .  S
C495        C496   1.397       .  A
C495        H502   1.084   1_455  S
C496        C497   1.416       .  A
C496        H503   1.083   1_455  S
C497        C498   1.412       .  A
C498        H504   1.080       .  S
C505        C506   1.417       .  A
C505        C510   1.409       .  A
C506        C507   1.391       .  A
C506        H515   1.083       .  S
C507        C508   1.397       .  A
C507        H516   1.084       .  S
C508        C514   1.401       .  A
C508        C509   1.412       .  A
C509        C511   1.395       .  A
C509        C510   1.398       .  A
C510        H517   1.082       .  S
C511        C512   1.389       .  A
C511        H518   1.084       .  S
C512        C513   1.415       .  A
C512        H519   1.083       .  S
C513        C514   1.410       .  A
C514        H520   1.080       .  S
C521        C522   1.419       .  A
C521        C526   1.410       .  A
C522        C523   1.392       .  A
C522        H531   1.083       .  S
C523        C524   1.394       .  A
C523        H532   1.084       .  S
C524        C530   1.404       .  A
C524        C525   1.412       .  A
C525        C527   1.395       .  A
C525        C526   1.406       .  A
C526        H533   1.078       .  S
C527        C528   1.394       .  A
C527        H534   1.084       .  S
C528        C529   1.420       .  A
C528        H535   1.080       .  S
C529        C530   1.409       .  A
C530        H536   1.084       .  S
C537        C538   1.403       .  A
C537        C542   1.411       .  A
C538        C539   1.396       .  A
C538        H547   1.083       .  S
C539        C540   1.403       .  A
C539        H548   1.084       .  S
C540        C546   1.403       .  A
C540        C541   1.409       .  A
C541        C543   1.404   1_545  A
C541        C542   1.411       .  A
C542        H549   1.084       .  S
C543        C544   1.404       .  A
C543        H550   1.083       .  S
C544        C545   1.413       .  A
C544        H551   1.083       .  S
C545        C546   1.420   1_565  A
C546        H552   1.081       .  S
C553        C554   1.403       .  A
C553        C558   1.406       .  A
C554        C555   1.388       .  A
C554        H563   1.083       .  S
C555        C556   1.398       .  A
C555        H564   1.084       .  S
C556        C562   1.388       .  A
C556        C557   1.409       .  A
C557        C559   1.403       .  A
C557        C558   1.403       .  A
C558        H565   1.084       .  S
C559        C560   1.402       .  A
C559        H566   1.083       .  S
C560        C561   1.411       .  A
C560        H567   1.078       .  S
C561        C562   1.413       .  A
C562        H568   1.085       .  S
C569        C570   1.419       .  A
C569        C574   1.413   1_565  A
C570        C571   1.388   1_455  A
C570        H579   1.081       .  S
C571        C572   1.392   1_565  A
C571        H580   1.084       .  S
C572        C578   1.398       .  A
C572        C573   1.413       .  A
C573        C575   1.404       .  A
C573        C574   1.409   1_655  A
C574        H581   1.084       .  S
C575        C576   1.402       .  A
C575        H582   1.084       .  S
C576        C577   1.406       .  A
C576        H583   1.083       .  S
C577        C578   1.399       .  A
C578        H584   1.085   1_545  S
C585        C586   1.410       .  A
C585        C590   1.416   1_455  A
C586        C587   1.405   1_455  A
C586        H595   1.083       .  S
C587        C588   1.405       .  A
C587        H596   1.083       .  S
C588        C594   1.409       .  A
C588        C589   1.410       .  A
C589        C591   1.400       .  A
C589        C590   1.394       .  A
C590        H597   1.083       .  S
C591        C592   1.391       .  A
C591        H598   1.084       .  S
C592        C593   1.401       .  A
C592        H599   1.083       .  S
C593        C594   1.409       .  A
C594        H600   1.084       .  S
In601       O603   2.241       .  S
In601       O604   2.240       .  S
In601       O612   2.252       .  S
In601       O606   2.237       .  S
In601       O608   2.225       .  S
In601       O609   2.241       .  S
In601       O610   2.261       .  S
In601       O613   2.248       .  S
C602        O608   1.259       .  A
C602        O610   1.265       .  A
C602        C661   1.463       .  S
O603        C611   1.260       .  A
O604        C611   1.256       .  A
C605        O612   1.261       .  A
C605        O606   1.260       .  A
C605       C1193   1.471       .  S
C607        O609   1.258       .  A
C607        O613   1.261       .  A
C607        C719   1.462       .  S
C611        C620   1.456       .  S
In614       O616   2.243       .  S
In614       O617   2.256       .  S
In614       O625   2.244       .  S
In614       O619   2.225       .  S
In614       O621   2.271       .  S
In614       O622   2.252       .  S
In614       O623   2.250       .  S
In614       O626   2.242       .  S
C615        O621   1.258       .  A
C615        O623   1.257       .  A
C615        C669   1.469       .  S
O616        C624   1.260       .  A
O617        C624   1.262       .  A
C618        O625   1.262       .  A
C618        O619   1.262       .  A
C618       C1177   1.468       .  S
C620        O622   1.259       .  A
C620        O626   1.254       .  A
C624        C732   1.465       .  S
In627       O629   2.266       .  S
In627       O630   2.277       .  S
In627       O638   2.250       .  S
In627       O632   2.219       .  S
In627       O634   2.237       .  S
In627       O635   2.270       .  S
In627       O636   2.269       .  S
In627       O639   2.265       .  S
C628        O634   1.258       .  A
C628        O636   1.265       .  A
C628        C684   1.468       .  S
O629        C637   1.256       .  A
O630        C637   1.260       .  A
C631        O638   1.262       .  A
C631        O632   1.259       .  A
C631       C1153   1.469       .  S
C633        O635   1.261       .  A
C633        O639   1.257       .  A
C633        C650   1.475       .  S
C637        C745   1.475       .  S
In640       O642   2.273       .  S
In640       O643   2.262       .  S
In640       O651   2.274       .  S
In640       O645   2.255       .  S
In640       O647   2.249       .  S
In640       O648   2.251       .  S
In640       O649   2.265       .  S
In640       O652   2.253       .  S
C641        O647   1.256       .  A
C641        O649   1.259       .  A
C641        C697   1.466       .  S
O642        C650   1.261       .  A
O643        C650   1.257       .  A
C644        O651   1.260       .  A
C644        O645   1.261       .  A
C644       C1137   1.487       .  S
C646        O648   1.262       .  A
C646        O652   1.260       .  A
C646        C758   1.466       .  S
C653       C1113   1.549       .  S
C653       C1129   1.557       .  S
C653       C1161   1.548       .  S
C653       C1185   1.554       .  S
C654       C1089   1.555   1_565  S
C654       C1121   1.554       .  S
C654       C1145   1.564   1_565  S
C654       C1169   1.550       .  S
In655       O657   2.255       .  S
In655       O658   2.262       .  S
In655       O666   2.244       .  S
In655       O660   2.259       .  S
In655       O662   2.271       .  S
In655       O663   2.245       .  S
In655       O664   2.280       .  S
In655       O667   2.272       .  S
C656        O662   1.261       .  A
C656        O664   1.261       .  A
C656        C674   1.482       .  S
O657        C665   1.263       .  A
O658        C665   1.258       .  A
C659        O666   1.258       .  A
C659        O660   1.262       .  A
C659       C1073   1.478       .  S
C661        O663   1.255       .  A
C661        O667   1.256       .  A
C665        C801   1.469       .  S
In668       O670   2.260       .  S
In668       O671   2.279       .  S
In668       O679   2.252       .  S
In668       O673   2.233       .  S
In668       O675   2.246       .  S
In668       O676   2.278       .  S
In668       O677   2.272       .  S
In668       O680   2.262       .  S
C669        O675   1.257       .  A
C669        O677   1.261       .  A
O670        C678   1.255       .  A
O671        C678   1.262       .  A
C672        O679   1.264       .  A
C672        O673   1.261       .  A
C672       C1057   1.473       .  S
C674        O676   1.264       .  A
C674        O680   1.261       .  A
C678        C814   1.475       .  S
C681       C1017   1.552       .  S
C681       C1033   1.551       .  S
C681       C1041   1.554       .  S
C681       C1081   1.553       .  S
C682        C977   1.557       .  S
C682        C993   1.558       .  S
C682       C1049   1.557       .  S
C682       C1065   1.555       .  S
In683       O685   2.272       .  S
In683       O686   2.257       .  S
In683       O694   2.234       .  S
In683       O688   2.251       .  S
In683       O690   2.262       .  S
In683       O691   2.246       .  S
In683       O692   2.246       .  S
In683       O695   2.271       .  S
C684        O690   1.259       .  A
C684        O692   1.261       .  A
O685        C693   1.261       .  A
O686        C693   1.261       .  A
C687        O694   1.260       .  A
C687        O688   1.262       .  A
C687       C1025   1.473       .  S
C689        O691   1.256       .  A
C689        O695   1.258       .  A
C689        C706   1.466       .  S
C693        C786   1.476       .  S
In696       O698   2.271       .  S
In696       O699   2.244       .  S
In696       O707   2.267       .  S
In696       O701   2.236       .  S
In696       O703   2.262       .  S
In696       O704   2.250       .  S
In696       O705   2.251       .  S
In696       O708   2.254       .  S
C697        O703   1.258       .  A
C697        O705   1.259       .  A
O698        C706   1.259       .  A
O699        C706   1.256       .  A
C700        O707   1.262       .  A
C700        O701   1.260       .  A
C700       C1001   1.480       .  S
C702        O704   1.261       .  A
C702        O708   1.261       .  A
C702        C769   1.467       .  S
In709       O720   2.221       .  S
In709       O714   2.272       .  S
In709       O716   2.257       .  S
In709       O717   2.257       .  S
In709       O718   2.244       .  S
In709       O721   2.264       .  S
C710        O716   1.257       .  A
C710        O718   1.257       .  A
C710        C728   1.461       .  S
O711        C719   1.258       .  A
O712        C719   1.260   1_554  A
C713        O720   1.262       .  A
C713        O714   1.263       .  A
C713        C961   1.479       .  S
C715        O717   1.258       .  A
C715        O721   1.257       .  A
C715        C797   1.467       .  S
In722       O724   2.246   1_565  S
In722       O733   2.229       .  S
In722       O727   2.249       .  S
In722       O729   2.241       .  S
In722       O730   2.241       .  S
In722       O731   2.263       .  S
In722       O734   2.254       .  S
C723        O729   1.255       .  A
C723        O731   1.261       .  A
C723        C805   1.465       .  S
O725        C732   1.262   1_565  A
C726        O733   1.260       .  A
C726        O727   1.259       .  A
C726        C945   1.470       .  S
C728        O730   1.257       .  A
C728        O734   1.259       .  A
In735       O737   2.263       .  S
In735       O746   2.267       .  S
In735       O740   2.218       .  S
In735       O742   2.260       .  S
In735       O743   2.274       .  S
In735       O744   2.263       .  S
In735       O747   2.248       .  S
C736        O742   1.258       .  A
C736        O744   1.262       .  A
C736        C777   1.473       .  S
O738        C745   1.261       .  A
C739        O746   1.262       .  A
C739        O740   1.262       .  A
C739        C937   1.477       .  S
C741        O743   1.262       .  A
C741        O747   1.257       .  A
C741        C749   1.471       .  S
In748       O759   2.255       .  S
In748       O753   2.247   1_565  S
In748       O755   2.242       .  S
In748       O756   2.243       .  S
In748       O757   2.262       .  S
In748       O760   2.263       .  S
C749        O755   1.262       .  A
C749        O757   1.263       .  A
O750        C758   1.261   1_565  A
O751        C758   1.259   1_554  A
C752        O759   1.261   1_545  A
C752        O753   1.260       .  A
C752        C921   1.475       .  S
C754        O756   1.257       .  A
C754        O760   1.257       .  A
C754        C764   1.463       .  S
C761        C897   1.554       .  S
C761        C913   1.557       .  S
C761        C953   1.548       .  S
C761       C1097   1.555       .  S
C762        C905   1.577       .  S
C762        C929   1.570       .  S
C762        C969   1.572       .  S
C762       C1105   1.554       .  S
In763       O765   2.248       .  S
In763       O766   2.265       .  S
In763       O774   2.251       .  S
In763       O768   2.227   1_565  S
In763       O770   2.230       .  S
In763       O771   2.257       .  S
In763       O772   2.263       .  S
In763       O775   2.258   1_565  S
C764        O770   1.257       .  A
C764        O772   1.263       .  A
O765        C773   1.259       .  A
O766        C773   1.260       .  A
C767        O774   1.263   1_545  A
C767        O768   1.260       .  A
C767        C881   1.473       .  S
C769        O771   1.258   1_545  A
C769        O775   1.258       .  A
C773        C782   1.470       .  S
In776       O778   2.257       .  S
In776       O779   2.274       .  S
In776       O787   2.241       .  S
In776       O781   2.239       .  S
In776       O783   2.255       .  S
In776       O784   2.272       .  S
In776       O785   2.268       .  S
In776       O788   2.249       .  S
C777        O783   1.258       .  A
C777        O785   1.262       .  A
O778        C786   1.259       .  A
O779        C786   1.262       .  A
C780        O787   1.262       .  A
C780        O781   1.263       .  A
C780        C865   1.476       .  S
C782        O784   1.261       .  A
C782        O788   1.257       .  A
C789        C841   1.550       .  S
C789        C857   1.548       .  S
C789        C873   1.549       .  S
C789       C1009   1.552       .  S
C790        C817   1.551       .  S
C790        C849   1.554       .  S
C790        C889   1.547       .  S
C790        C985   1.554       .  S
In791       O793   2.248       .  S
In791       O794   2.281       .  S
In791       O802   2.226       .  S
In791       O796   2.263       .  S
In791       O798   2.261       .  S
In791       O799   2.260       .  S
In791       O800   2.271       .  S
In791       O803   2.247       .  S
C792        O798   1.262       .  A
C792        O800   1.262       .  A
C792        C810   1.478       .  S
O793        C801   1.253       .  A
O794        C801   1.261       .  A
C795        O802   1.260       .  A
C795        O796   1.264       .  A
C795        C833   1.474       .  S
C797        O799   1.260       .  A
C797        O803   1.258       .  A
In804       O806   2.265   1_565  S
In804       O807   2.270       .  S
In804       O815   2.244       .  S
In804       O809   2.235   1_565  S
In804       O811   2.257       .  S
In804       O812   2.275       .  S
In804       O813   2.250       .  S
In804       O816   2.259       .  S
C805        O811   1.257       .  A
C805        O813   1.260       .  A
O806        C814   1.256       .  A
O807        C814   1.261   1_565  A
C808        O815   1.262       .  A
C808        O809   1.260   1_565  A
C808        C825   1.471   1_565  S
C810        O812   1.263       .  A
C810        O816   1.260       .  A
C817        C818   1.414   1_545  A
C817        C822   1.415       .  A
C818        C819   1.393       .  A
C818        H827   1.083       .  S
C819        C820   1.397   1_565  A
C819        H828   1.084       .  S
C820        C826   1.402   1_545  A
C820        C821   1.412       .  A
C821        C823   1.403       .  A
C821        C822   1.402       .  A
C822        H829   1.080       .  S
C823        C824   1.396       .  A
C823        H830   1.084       .  S
C824        C825   1.404       .  A
C824        H831   1.083       .  S
C825        C826   1.402   1_545  A
C826        H832   1.084       .  S
C833        C834   1.404       .  A
C833        C838   1.405       .  A
C834        C835   1.394       .  A
C834        H843   1.083       .  S
C835        C836   1.401       .  A
C835        H844   1.084       .  S
C836        C842   1.401       .  A
C836        C837   1.412       .  A
C837        C839   1.400       .  A
C837        C838   1.408       .  A
C838        H845   1.084       .  S
C839        C840   1.399       .  A
C839        H846   1.083       .  S
C840        C841   1.413       .  A
C840        H847   1.083       .  S
C841        C842   1.415       .  A
C842        H848   1.082       .  S
C849        C850   1.416       .  A
C849        C854   1.414       .  A
C850        C851   1.393       .  A
C850        H859   1.079       .  S
C851        C852   1.396       .  A
C851        H860   1.084       .  S
C852        C858   1.401       .  A
C852        C853   1.410       .  A
C853        C855   1.399       .  A
C853        C854   1.405       .  A
C854        H861   1.084       .  S
C855        C856   1.397       .  A
C855        H862   1.083       .  S
C856        C857   1.414       .  A
C856        H863   1.083       .  S
C857        C858   1.411       .  A
C858        H864   1.082       .  S
C865        C866   1.405       .  A
C865        C870   1.403       .  A
C866        C867   1.398       .  A
C866        H875   1.083       .  S
C867        C868   1.403       .  A
C867        H876   1.083       .  S
C868        C874   1.406       .  A
C868        C869   1.413       .  A
C869        C871   1.396       .  A
C869        C870   1.402       .  A
C870        H877   1.084       .  S
C871        C872   1.392       .  A
C871        H878   1.084       .  S
C872        C873   1.416       .  A
C872        H879   1.083       .  S
C873        C874   1.413       .  A
C874        H880   1.080       .  S
C881        C882   1.405       .  A
C881        C886   1.404       .  A
C882        C883   1.394       .  A
C882        H891   1.083       .  S
C883        C884   1.399       .  A
C883        H892   1.084       .  S
C884        C890   1.399       .  A
C884        C885   1.412       .  A
C885        C887   1.399       .  A
C885        C886   1.403       .  A
C886        H893   1.084   1_545  S
C887        C888   1.396       .  A
C887        H894   1.084       .  S
C888        C889   1.415       .  A
C888        H895   1.080       .  S
C889        C890   1.410       .  A
C890        H896   1.084       .  S
C897        C898   1.417       .  A
C897        C902   1.412       .  A
C898        C899   1.398   1_455  A
C898        H907   1.080   1_455  S
C899        C900   1.399   1_655  A
C899        H908   1.084       .  S
C900        C906   1.406       .  A
C900        C901   1.406       .  A
C901        C903   1.393       .  A
C901        C902   1.402       .  A
C902        H909   1.084       .  S
C903        C904   1.394       .  A
C903        H910   1.084       .  S
C904        C905   1.421       .  A
C904        H911   1.068       .  S
C905        C906   1.422       .  A
C906        H912   1.080       .  S
C913        C914   1.415       .  A
C913        C918   1.415       .  A
C914        C915   1.396   1_545  A
C914        H923   1.083   1_545  S
C915        C916   1.398   1_565  A
C915        H924   1.084       .  S
C916        C922   1.405   1_545  A
C916        C917   1.412       .  A
C917        C919   1.403       .  A
C917        C918   1.406       .  A
C918        H925   1.079       .  S
C919        C920   1.398       .  A
C919        H926   1.083       .  S
C920        C921   1.404       .  A
C920        H927   1.083       .  S
C921        C922   1.404   1_545  A
C922        H928   1.084       .  S
C929        C930   1.423       .  A
C929        C934   1.421       .  A
C930        C931   1.379       .  A
C930        H939   1.082       .  S
C931        C932   1.385       .  A
C931        H940   1.084       .  S
C932        C938   1.393       .  A
C932        C933   1.411       .  A
C933        C935   1.408       .  A
C933        C934   1.416       .  A
C934        H941   1.076       .  S
C935        C936   1.407       .  A
C935        H942   1.083       .  S
C936        C937   1.407       .  A
C936        H943   1.083       .  S
C937        C938   1.396       .  A
C938        H944   1.085       .  S
C945        C946   1.403       .  A
C945        C950   1.406   1_565  A
C946        C947   1.391       .  A
C946        H955   1.083       .  S
C947        C948   1.400   1_565  A
C947        H956   1.084       .  S
C948        C954   1.396       .  A
C948        C949   1.411       .  A
C949        C951   1.401       .  A
C949        C950   1.404       .  A
C950        H957   1.084       .  S
C951        C952   1.398       .  A
C951        H958   1.084       .  S
C952        C953   1.413   1_655  A
C952        H959   1.083   1_655  S
C953        C954   1.411   1_455  A
C954        H960   1.081       .  S
C961        C962   1.403       .  A
C961        C966   1.412       .  A
C962        C963   1.389       .  A
C962        H971   1.083       .  S
C963        C964   1.400       .  A
C963        H972   1.084       .  S
C964        C970   1.397       .  A
C964        C965   1.408       .  A
C965        C967   1.404       .  A
C965        C966   1.413       .  A
C966        H973   1.084       .  S
C967        C968   1.406   1_655  A
C967        H974   1.083       .  S
C968        C969   1.418       .  A
C968        H975   1.083       .  S
C969        C970   1.420   1_455  A
C970        H976   1.078       .  S
C977        C978   1.418   1_565  A
C977        C982   1.416       .  A
C978        C979   1.392       .  A
C978        H987   1.079       .  S
C979        C980   1.395       .  A
C979        H988   1.084       .  S
C980        C981   1.408       .  A
C981        C983   1.400   1_545  A
C981        C982   1.405   1_545  A
C982        H989   1.084       .  S
C983        H990   1.083       .  S
C984        C985   1.417       .  A
C984        H991   1.079   1_545  S
C985        C986   1.410       .  A
C986        H992   1.084       .  S
C993        C994   1.416       .  A
C993        C998   1.414   1_565  A
C994        C995   1.398       .  A
C994       H1003   1.083       .  S
C995        C996   1.400   1_565  A
C995       H1004   1.083       .  S
C996       C1002   1.408       .  A
C996        C997   1.412       .  A
C997        C999   1.401       .  A
C997        C998   1.403       .  A
C998       H1005   1.079       .  S
C999       C1000   1.395       .  A
C999       H1006   1.084       .  S
C1000      C1001   1.405       .  A
C1000      H1007   1.083       .  S
C1001      C1002   1.407       .  A
C1002      H1008   1.084       .  S
C1009      C1010   1.414       .  A
C1009      C1014   1.414       .  A
C1010      H1019   1.082       .  S
C1011      C1012   1.398       .  A
C1011      H1020   1.084       .  S
C1012      C1018   1.401       .  A
C1012      C1013   1.409       .  A
C1013      C1015   1.397       .  A
C1014      H1021   1.081       .  S
C1015      C1016   1.393       .  A
C1015      H1022   1.084       .  S
C1016      C1017   1.415       .  A
C1016      H1023   1.083       .  S
C1017      C1018   1.414       .  A
C1018      H1024   1.079       .  S
C1025      C1026   1.405       .  A
C1025      C1030   1.405       .  A
C1026      C1027   1.394       .  A
C1026      H1035   1.083       .  S
C1027      C1028   1.401       .  A
C1027      H1036   1.084       .  S
C1028      C1034   1.399       .  A
C1028      C1029   1.412       .  A
C1029      C1031   1.400       .  A
C1029      C1030   1.403       .  A
C1030      H1037   1.084       .  S
C1031      C1032   1.397       .  A
C1031      H1038   1.084       .  S
C1032      C1033   1.413       .  A
C1032      H1039   1.083       .  S
C1033      C1034   1.414       .  A
C1034      H1040   1.081       .  S
C1041      C1042   1.416       .  A
C1041      C1046   1.416       .  A
C1042      C1043   1.391       .  A
C1042      H1051   1.079       .  S
C1043      C1044   1.397       .  A
C1043      H1052   1.084       .  S
C1044      C1050   1.399       .  A
C1044      C1045   1.407       .  A
C1045      C1047   1.400       .  A
C1045      C1046   1.405       .  A
C1046      H1053   1.084       .  S
C1047      C1048   1.399       .  A
C1047      H1054   1.084       .  S
C1048      C1049   1.416       .  A
C1048      H1055   1.083       .  S
C1049      C1050   1.415       .  A
C1050      H1056   1.079       .  S
C1057      C1058   1.404   1_545  A
C1057      C1062   1.402       .  A
C1058      C1059   1.397       .  A
C1058      H1067   1.083       .  S
C1059      C1060   1.403       .  A
C1059      H1068   1.084       .  S
C1060      C1066   1.405       .  A
C1060      C1061   1.413   1_565  A
C1061      C1063   1.397       .  A
C1061      C1062   1.404       .  A
C1062      H1069   1.084       .  S
C1063      C1064   1.394       .  A
C1063      H1070   1.084       .  S
C1064      C1065   1.416   1_545  A
C1064      H1071   1.083       .  S
C1065      C1066   1.414       .  A
C1066      H1072   1.078       .  S
C1073      C1074   1.406       .  A
C1073      C1078   1.405       .  A
C1074      C1075   1.397       .  A
C1074      H1083   1.083       .  S
C1075      C1076   1.402       .  A
C1075      H1084   1.084       .  S
C1076      C1082   1.404       .  A
C1076      C1077   1.412       .  A
C1077      C1079   1.398       .  A
C1077      C1078   1.405       .  A
C1078      H1085   1.084       .  S
C1079      C1080   1.395       .  A
C1079      H1086   1.084       .  S
C1080      C1081   1.414       .  A
C1080      H1087   1.083       .  S
C1081      C1082   1.415       .  A
C1082      H1088   1.080       .  S
C1089      C1090   1.414   1_545  A
C1089      C1094   1.417       .  A
C1090      C1091   1.391   1_565  A
C1090      H1099   1.083       .  S
C1091      C1092   1.396       .  A
C1091      H1100   1.084   1_545  S
C1092      C1098   1.401       .  A
C1092      C1093   1.409       .  A
C1093      C1095   1.400       .  A
C1093      C1094   1.406       .  A
C1094      H1101   1.079       .  S
C1095      C1096   1.397       .  A
C1095      H1102   1.084   1_455  S
C1096      C1097   1.415       .  A
C1096      H1103   1.083   1_455  S
C1097      C1098   1.413       .  A
C1098      H1104   1.080       .  S
C1105      C1106   1.419       .  A
C1105      C1110   1.407       .  A
C1106      C1107   1.393       .  A
C1106      H1115   1.083       .  S
C1107      C1108   1.397       .  A
C1107      H1116   1.084       .  S
C1108      C1114   1.406       .  A
C1108      C1109   1.414       .  A
C1109      C1111   1.393       .  A
C1109      C1110   1.400       .  A
C1110      H1117   1.081       .  S
C1111      C1112   1.387       .  A
C1111      H1118   1.084       .  S
C1112      C1113   1.417       .  A
C1112      H1119   1.083       .  S
C1113      C1114   1.410       .  A
C1114      H1120   1.080       .  S
C1121      C1122   1.420       .  A
C1121      C1126   1.406       .  A
C1122      C1123   1.393       .  A
C1122      H1131   1.082       .  S
C1123      C1124   1.394       .  A
C1123      H1132   1.084       .  S
C1124      C1130   1.407       .  A
C1124      C1125   1.413       .  A
C1125      C1127   1.392       .  A
C1125      C1126   1.404       .  A
C1126      H1133   1.078       .  S
C1127      C1128   1.390       .  A
C1127      H1134   1.084       .  S
C1128      C1129   1.422       .  A
C1128      H1135   1.080       .  S
C1129      C1130   1.410       .  A
C1130      H1136   1.084       .  S
C1137      C1138   1.405       .  A
C1137      C1142   1.411       .  A
C1138      C1139   1.397       .  A
C1138      H1147   1.083       .  S
C1139      C1140   1.402       .  A
C1139      H1148   1.084       .  S
C1140      C1146   1.405       .  A
C1140      C1141   1.410       .  A
C1141      C1143   1.403   1_545  A
C1141      C1142   1.412       .  A
C1142      H1149   1.084       .  S
C1143      C1144   1.403       .  A
C1143      H1150   1.083       .  S
C1144      C1145   1.414   1_565  A
C1144      H1151   1.082       .  S
C1145      C1146   1.419       .  A
C1146      H1152   1.081       .  S
C1153      C1154   1.404       .  A
C1153      C1158   1.407       .  A
C1154      C1155   1.389       .  A
C1154      H1163   1.083       .  S
C1155      C1156   1.398       .  A
C1155      H1164   1.084       .  S
C1156      C1162   1.389       .  A
C1156      C1157   1.410       .  A
C1157      C1159   1.403       .  A
C1157      C1158   1.403       .  A
C1158      H1165   1.084       .  S
C1159      C1160   1.401       .  A
C1159      H1166   1.083       .  S
C1160      C1161   1.411       .  A
C1160      H1167   1.078       .  S
C1161      C1162   1.413       .  A
C1162      H1168   1.085       .  S
C1169      C1170   1.419       .  A
C1169      C1174   1.412   1_565  A
C1170      C1171   1.386   1_455  A
C1170      H1179   1.081       .  S
C1171      C1172   1.391   1_565  A
C1171      H1180   1.084       .  S
C1172      C1178   1.395       .  A
C1172      C1173   1.414       .  A
C1173      C1175   1.404       .  A
C1173      C1174   1.407   1_655  A
C1174      H1181   1.084       .  S
C1175      C1176   1.401       .  A
C1175      H1182   1.083       .  S
C1176      C1177   1.405       .  A
C1176      H1183   1.083       .  S
C1177      C1178   1.397       .  A
C1178      H1184   1.085       .  S
C1185      C1186   1.410       .  A
C1185      C1190   1.418   1_455  A
C1186      C1187   1.403   1_455  A
C1186      H1195   1.083       .  S
C1187      C1188   1.405       .  A
C1187      H1196   1.083       .  S
C1188      C1194   1.406       .  A
C1188      C1189   1.409       .  A
C1189      C1191   1.402       .  A
C1189      C1190   1.394       .  A
C1190      H1197   1.082       .  S
C1191      C1192   1.392       .  A
C1191      H1198   1.084       .  S
C1192      C1193   1.402       .  A
C1192      H1199   1.083       .  S
C1193      C1194   1.408       .  A
C1194      H1200   1.084       .  S
