geometry optimzed in LAMMPS
_audit_creation_date              2020-11-30 
_audit_creation_method            'lammps2cif' 
_symmetry_space_group_name_H-M    'P1' 
_symmetry_Int_Tables_number       1 
_symmetry_cell_setting            triclinic 
loop_ 
_symmetry_equiv_pos_as_xyz 
  x,y,z 
_cell_length_a                    38.9646757 
_cell_length_b                    38.993190059672386 
_cell_length_c                    50.29469603009213 
_cell_angle_alpha                 89.83434548898175 
_cell_angle_beta                  90.00757203135676 
_cell_angle_gamma                 119.97925046152528 
loop_ 
_atom_site_label 
_atom_site_type_symbol 
_atom_site_fract_x 
_atom_site_fract_y 
_atom_site_fract_z 
_atom_site_charge 
N1          N  0.20354927  0.44274317  0.34083441    -0.27200
N2          N  0.19007776  0.42365067  0.36366176    -0.35000
C3          C  0.15702394  0.38873836  0.35901741     0.01200
C4          C  0.14941303  0.38550931  0.33198302     0.07200
C5          C  0.17961920  0.42019485  0.32107760    -0.05900
H6          H  0.13939041  0.36764232  0.37428951     0.07800
H7          H  0.18314360  0.42906755  0.30040869     0.09000
Cu8        Cu  0.21549930  0.44682462  0.40047534     0.44200
Cu9        Cu  0.25187490  0.00021216  0.33760321     0.42000
Cu10       Cu  0.29188586  0.05002026  0.39996247     0.43900
N11         N  0.24189933  0.47914271  0.43476879    -0.34600
N12         N  0.26833300  0.01738221  0.43451105    -0.28800
C13         C  0.27745879  0.03033350  0.45969887    -0.04900
C14         C  0.25618499  0.49863182  0.47662770     0.07300
C15         C  0.23406949  0.46659637  0.46018346     0.01100
H16         H  0.29835755  0.06053308  0.46524879     0.08700
H17         H  0.21301583  0.43663131  0.46624074     0.07800
N18         N  0.31403936  0.07602302  0.36321803    -0.36000
N19         N  0.29937851  0.05819004  0.34027204    -0.28200
C20         C  0.32096620  0.08280702  0.32036829    -0.03400
C21         C  0.35080945  0.11755232  0.33138795     0.05200
C22         C  0.34545526  0.11212503  0.35857569     0.01500
H23         H  0.31600304  0.07551029  0.29947607     0.08400
H24         H  0.36341142  0.13266705  0.37391934     0.07200
N25         N  0.05578414  0.30203263  0.30902366    -0.27200
N26         N  0.07383524  0.31678914  0.28607405    -0.35000
C27         C  0.10989975  0.34820690  0.29074544     0.01200
C28         C  0.11507080  0.35343747  0.31794443     0.07200
C29         C  0.08021172  0.32353001  0.32893703    -0.05900
H30         H  0.13063047  0.36621727  0.27541150     0.07800
H31         H  0.07271000  0.31844547  0.34982780     0.09000
Cu32       Cu  0.04824175  0.29459611  0.24926119     0.44200
Cu33       Cu  0.49777962  0.25449941  0.31177558     0.42000
Cu34       Cu  0.44513830  0.21801911  0.24893335     0.43900
N35         N  0.01589092  0.27052339  0.21471404    -0.34600
N36         N  0.47765974  0.24399161  0.21456820    -0.28800
C37         C  0.46524115  0.23563887  0.18920070    -0.04900
C38         C  0.49734268  0.25750098  0.17264207     0.07300
C39         C  0.02897031  0.27919212  0.18946751     0.01100
H40         H  0.43532068  0.21436962  0.18326838     0.08700
H41         H  0.05919685  0.30002150  0.18379988     0.07800
N42         N  0.42150784  0.19271675  0.28573300    -0.36000
N43         N  0.44032158  0.20617486  0.30858046    -0.28200
C44         C  0.41753128  0.18219612  0.32833729    -0.03400
C45         C  0.38299260  0.15199200  0.31739039     0.05200
C46         C  0.38654913  0.15964889  0.29034850     0.03300
H47         H  0.42615583  0.18566609  0.34902635     0.08400
H48         H  0.36568642  0.14201392  0.27505225     0.07200
N49         N  0.43958571  0.24078775  0.00686978    -0.27200
N50         N  0.42145580  0.23746375  0.02976054    -0.35000
C51         C  0.38568903  0.23355883  0.02499557     0.01200
C52         C  0.38081508  0.23416542  0.99778794     0.07200
C53         C  0.41551410  0.23862918  0.98688521    -0.05900
H54         H  0.36504399  0.23114163  0.04027375     0.07800
H55         H  0.42322029  0.24138797  0.96603097     0.09000
Cu56       Cu  0.44685919  0.24048164  0.06659702     0.44200
Cu57       Cu  0.49741022  0.25078110  0.00438120     0.42000
Cu58       Cu  0.05012333  0.26720617  0.06736035     0.43900
N59         N  0.47925971  0.24965625  0.10123848    -0.34600
N60         N  0.01752227  0.26144179  0.10155298    -0.28800
C61         C  0.02999364  0.26662479  0.12696537    -0.04900
C62         C  0.99789313  0.25704885  0.14336971     0.07300
C63         C  0.46621884  0.24630331  0.12641004     0.01100
H64         H  0.05998013  0.27574066  0.13305655     0.08700
H65         H  0.43600939  0.23723856  0.13192395     0.07800
N66         N  0.07389551  0.26581513  0.03056332    -0.36000
N67         N  0.05502536  0.26040282  0.00771041    -0.28200
C68         C  0.07808168  0.25992405  0.98792924    -0.03400
C69         C  0.11289004  0.26480617  0.99884226     0.05200
C70         C  0.10919250  0.26844738  0.02590898     0.03300
H71         H  0.06953670  0.25503793  0.96722470     0.08400
H72         H  0.13028620  0.27204550  0.04118111     0.07200
N73         N  0.19771720  0.25705905  0.97565352    -0.27200
N74         N  0.18288783  0.26035554  0.95276159    -0.35000
C75         C  0.15102881  0.26426274  0.95752818     0.01200
C76         C  0.14557396  0.26368381  0.98473748     0.07200
C77         C  0.17582245  0.25923565  0.99563848    -0.05900
H78         H  0.13278227  0.26665695  0.94225071     0.07800
H79         H  0.18079048  0.25649630  0.01649603     0.09000
Cu80       Cu  0.20523437  0.25728648  0.91592132     0.44200
Cu81       Cu  0.24555069  0.24707066  0.97814761     0.42000
Cu82       Cu  0.28176700  0.23055773  0.91517968     0.43900
N83         N  0.22844504  0.24808188  0.88128364    -0.34600
N84         N  0.25492047  0.23629560  0.88098184    -0.28800
C85         C  0.26221533  0.23110728  0.85557477    -0.04900
C86         C  0.23969789  0.24068025  0.83915769     0.07300
C87         C  0.21876448  0.25142968  0.85610593     0.01100
H88         H  0.28309331  0.22199668  0.84949546     0.08700
H89         H  0.19762966  0.26050075  0.85058002     0.07800
N90         N  0.30696788  0.23199879  0.95197165    -0.36000
N91         N  0.29353648  0.23744098  0.97482232    -0.28200
C92         C  0.31709129  0.23794023  0.99460065    -0.03400
C93         C  0.34700236  0.23304179  0.98368749     0.05200
C94         C  0.33963608  0.22936928  0.95662332     0.03300
H95         H  0.31345446  0.24285003  0.01530639     0.08400
H96         H  0.35710722  0.22574832  0.94135566     0.07200
N97         N  0.25964364  0.05498974  0.64169546    -0.27200
N98         N  0.26527040  0.07408651  0.61886851    -0.35000
C99         C  0.26716212  0.10901144  0.62351511     0.01200
C100        C  0.26279623  0.11224499  0.65055025     0.07200
C101        C  0.25829049  0.07754748  0.66145362    -0.05900
H102        H  0.27064028  0.13011561  0.60824434     0.07800
H103        H  0.25295014  0.06867647  0.68212355     0.09000
Cu104      Cu  0.26749446  0.05090938  0.58205164     0.44200
Cu105      Cu  0.25047991  0.49751342  0.64492571     0.42000
Cu106      Cu  0.24067837  0.44771669  0.58256651     0.43900
N107        N  0.26157737  0.01859277  0.54775781    -0.34600
N108        N  0.24976583  0.48035293  0.54801772    -0.28800
C109        C  0.24595883  0.46740392  0.52283152    -0.04900
C110        C  0.25640606  0.49910664  0.50590047     0.07300
C111        C  0.26631681  0.03114206  0.52234199     0.01100
H112        H  0.23666425  0.43720409  0.51728415     0.08700
H113        H  0.27524232  0.06110591  0.51628251     0.07800
N114        N  0.23687433  0.42172383  0.61930778    -0.36000
N115        N  0.24004415  0.43955048  0.64225456    -0.28200
C116        C  0.23705116  0.41494378  0.66215672    -0.03400
C117        C  0.23217696  0.38021329  0.65113412     0.05200
C118        C  0.23222832  0.38563815  0.62394730     0.03300
H119        H  0.23939112  0.42223786  0.68304757     0.08400
H120        H  0.22965188  0.36510366  0.60860128     0.07200
N121        N  0.25274387  0.19577269  0.67350836    -0.27200
N122        N  0.25602334  0.18100585  0.69645913    -0.35000
C123        C  0.26063580  0.14956846  0.69178955     0.01200
C124        C  0.26056832  0.14433657  0.66459008     0.07200
C125        C  0.25564945  0.17426389  0.65359563    -0.05900
H126        H  0.26333164  0.13154542  0.70712214     0.07800
H127        H  0.25323210  0.17934999  0.63270891     0.09000
Cu128      Cu  0.25262559  0.20320112  0.73327192     0.44200
Cu129      Cu  0.24230318  0.24332318  0.67074954     0.42000
Cu130      Cu  0.22605520  0.27974093  0.73358201     0.43900
N131        N  0.24430509  0.22724792  0.76781582    -0.34600
N132        N  0.23258679  0.25376321  0.76795205    -0.28800
C133        C  0.22848677  0.26209662  0.79331589    -0.04900
C134        C  0.23872190  0.24023854  0.80988402     0.07300
C135        C  0.24869348  0.21857111  0.79306675     0.01100
H136        H  0.21981586  0.28335034  0.79923969     0.08700
H137        H  0.25809890  0.19774999  0.79874343     0.07800
N138        N  0.22775378  0.30506129  0.69678438    -0.36000
N139        N  0.23314445  0.29162933  0.67393977    -0.28200
C140        C  0.23432950  0.31561026  0.65418406    -0.03400
C141        C  0.22995603  0.34578801  0.66512958     0.05200
C142        C  0.22583747  0.33811381  0.69216865     0.03300
H143        H  0.23950122  0.31215681  0.63349677     0.08400
H144        H  0.22257259  0.35572425  0.70746376     0.07200
N145        N  0.20354933  0.94274318  0.34083438    -0.27200
N146        N  0.19007775  0.92365061  0.36366175    -0.35000
C147        C  0.15702394  0.88873836  0.35901740     0.01200
C148        C  0.14941309  0.88550925  0.33198303     0.07200
C149        C  0.17961929  0.92019484  0.32107759    -0.05900
H150        H  0.13939012  0.86764208  0.37428974     0.07800
H151        H  0.18314373  0.92906746  0.30040873     0.09000
Cu152      Cu  0.21549934  0.94682464  0.40047527     0.44200
Cu153      Cu  0.25187489  0.50021215  0.33760325     0.42000
Cu154      Cu  0.29188584  0.55002009  0.39996248     0.43900
N155        N  0.24189945  0.97914286  0.43476865    -0.34600
N156        N  0.26833303  0.51738223  0.43451117    -0.28800
C157        C  0.27745860  0.53033322  0.45969896    -0.04900
C158        C  0.25618509  0.99863197  0.47662760     0.07300
C159        C  0.23406939  0.96659611  0.46018342     0.01100
H160        H  0.29835817  0.56053379  0.46524925     0.08700
H161        H  0.21301724  0.93663315  0.46624010     0.07800
N162        N  0.31403949  0.57602317  0.36321811    -0.36000
N163        N  0.29937858  0.55819010  0.34027208    -0.28200
C164        C  0.32096616  0.58280693  0.32036843    -0.03400
C165        C  0.35080933  0.61755233  0.33138790     0.05200
C166        C  0.34545534  0.61212507  0.35857569     0.01500
H167        H  0.31600233  0.57550969  0.29947514     0.08400
H168        H  0.36341137  0.63266772  0.37391953     0.07200
N169        N  0.05578413  0.80203273  0.30902366    -0.27200
N170        N  0.07383524  0.81678928  0.28607402    -0.35000
C171        C  0.10989970  0.84820695  0.29074544     0.01200
C172        C  0.11507089  0.85343762  0.31794433     0.07200
C173        C  0.08021185  0.82353004  0.32893705    -0.05900
H174        H  0.13063078  0.86621826  0.27541106     0.07800
H175        H  0.07271050  0.81844584  0.34982735     0.09000
Cu176      Cu  0.04824154  0.79459602  0.24926121     0.44200
Cu177      Cu  0.49777961  0.75449942  0.31177557     0.42000
Cu178      Cu  0.44513831  0.71801915  0.24893339     0.43900
N179        N  0.01589072  0.77052331  0.21471397    -0.34600
N180        N  0.47765945  0.74399147  0.21456807    -0.28800
C181        C  0.46524140  0.73563899  0.18920083    -0.04900
C182        C  0.49734263  0.75750082  0.17264204     0.07300
C183        C  0.02897032  0.77919203  0.18946744     0.01100
H184        H  0.43531738  0.71436686  0.18326792     0.08700
H185        H  0.05919606  0.80002069  0.18379993     0.07800
N186        N  0.42150775  0.69271673  0.28573290    -0.36000
N187        N  0.44032160  0.70617486  0.30858022    -0.28200
C188        C  0.41753130  0.68219611  0.32833743    -0.03400
C189        C  0.38299235  0.65199183  0.31739012     0.05200
C190        C  0.38654928  0.65964908  0.29034860     0.03300
H191        H  0.42615479  0.68566549  0.34902364     0.08400
H192        H  0.36568498  0.64201290  0.27505125     0.07200
N193        N  0.43958580  0.74078777  0.00686943    -0.27200
N194        N  0.42145570  0.73746355  0.02976042    -0.35000
C195        C  0.38568909  0.73355866  0.02499538     0.01200
C196        C  0.38081527  0.73416540  0.99778762     0.07200
C197        C  0.41551412  0.73862910  0.98688546    -0.05900
H198        H  0.36504356  0.73114099  0.04027372     0.07800
H199        H  0.42322179  0.74138871  0.96602766     0.09000
Cu200      Cu  0.44685917  0.74048149  0.06659698     0.44200
Cu201      Cu  0.49741031  0.75078120  0.00438118     0.42000
Cu202      Cu  0.05012331  0.76720603  0.06736035     0.43900
N203        N  0.47925977  0.74965636  0.10123844    -0.34600
N204        N  0.01752255  0.76144172  0.10155311    -0.28800
C205        C  0.02999359  0.76662468  0.12696531    -0.04900
C206        C  0.99789351  0.75704886  0.14336971     0.07300
C207        C  0.46621874  0.74630332  0.12641004     0.01100
H208        H  0.05998335  0.77574127  0.13305708     0.08700
H209        H  0.43601030  0.73723888  0.13192373     0.07800
N210        N  0.07389550  0.76581495  0.03056330    -0.36000
N211        N  0.05502538  0.76040281  0.00771036    -0.28200
C212        C  0.07808164  0.75992393  0.98792925    -0.03400
C213        C  0.11289003  0.76480607  0.99884221     0.05200
C214        C  0.10919252  0.76844733  0.02590890     0.03300
H215        H  0.06953642  0.75503746  0.96722445     0.08400
H216        H  0.13028643  0.77204547  0.04118112     0.07200
N217        N  0.19771715  0.75705916  0.97565348    -0.27200
N218        N  0.18288752  0.76035546  0.95276142    -0.35000
C219        C  0.15102899  0.76426275  0.95752828     0.01200
C220        C  0.14557380  0.76368372  0.98473734     0.07200
C221        C  0.17582235  0.75923564  0.99563834    -0.05900
H222        H  0.13278026  0.76665691  0.94224929     0.07800
H223        H  0.18079059  0.75649662  0.01649629     0.09000
Cu224      Cu  0.20523444  0.75728657  0.91592133     0.44200
Cu225      Cu  0.24555063  0.74707050  0.97814758     0.42000
Cu226      Cu  0.28176696  0.73055758  0.91517966     0.43900
N227        N  0.22844480  0.74808211  0.88128353    -0.34600
N228        N  0.25492033  0.73629565  0.88098183    -0.28800
C229        C  0.26221534  0.73110743  0.85557477    -0.04900
C230        C  0.23969757  0.74068043  0.83915764     0.07300
C231        C  0.21876471  0.75142955  0.85610606     0.01100
H232        H  0.28309260  0.72199712  0.84949577     0.08700
H233        H  0.19762605  0.76050203  0.85057933     0.07800
N234        N  0.30696806  0.73199860  0.95197154    -0.36000
N235        N  0.29353651  0.73744078  0.97482225    -0.28200
C236        C  0.31709134  0.73794002  0.99460054    -0.03400
C237        C  0.34700252  0.73304161  0.98368720     0.05200
C238        C  0.33963596  0.72936917  0.95662331     0.03300
H239        H  0.31345457  0.74284972  0.01530599     0.08400
H240        H  0.35710877  0.72574759  0.94135392     0.07200
N241        N  0.25964366  0.55498976  0.64169552    -0.27200
N242        N  0.26527036  0.57408644  0.61886858    -0.35000
C243        C  0.26716222  0.60901157  0.62351501     0.01200
C244        C  0.26279617  0.61224491  0.65055019     0.07200
C245        C  0.25829050  0.57754753  0.66145366    -0.05900
H246        H  0.27064016  0.63011498  0.60824475     0.07800
H247        H  0.25294963  0.56867645  0.68212359     0.09000
Cu248      Cu  0.26749435  0.55090941  0.58205162     0.44200
Cu249      Cu  0.25047979  0.99751337  0.64492568     0.42000
Cu250      Cu  0.24067837  0.94771664  0.58256645     0.43900
N251        N  0.26157743  0.51859271  0.54775779    -0.34600
N252        N  0.24976596  0.98035334  0.54801778    -0.28800
C253        C  0.24595869  0.96740373  0.52283133    -0.04900
C254        C  0.25640622  0.99910712  0.50590043     0.07300
C255        C  0.26631673  0.53114192  0.52234202     0.01100
H256        H  0.23666577  0.93720852  0.51728467     0.08700
H257        H  0.27524236  0.56110559  0.51628259     0.07800
N258        N  0.23687441  0.92172374  0.61930774    -0.36000
N259        N  0.24004422  0.93955057  0.64225457    -0.28200
C260        C  0.23705122  0.91494400  0.66215654    -0.03400
C261        C  0.23217709  0.88021350  0.65113417     0.05200
C262        C  0.23222838  0.88563813  0.62394730     0.03300
H263        H  0.23939173  0.92223891  0.68304863     0.08400
H264        H  0.22965217  0.86510336  0.60860108     0.07200
N265        N  0.25274379  0.69577263  0.67350805    -0.27200
N266        N  0.25602331  0.68100536  0.69645918    -0.35000
C267        C  0.26063557  0.64956856  0.69178915     0.01200
C268        C  0.26056834  0.64433653  0.66458988     0.07200
C269        C  0.25564944  0.67426392  0.65359601    -0.05900
H270        H  0.26333202  0.63154245  0.70712419     0.07800
H271        H  0.25323221  0.67935157  0.63270534     0.09000
Cu272      Cu  0.25262553  0.70320099  0.73327193     0.44200
Cu273      Cu  0.24230326  0.74332335  0.67074955     0.42000
Cu274      Cu  0.22605530  0.77974100  0.73358199     0.43900
N275        N  0.24430499  0.72724780  0.76781586    -0.34600
N276        N  0.23258681  0.75376318  0.76795200    -0.28800
C277        C  0.22848659  0.76209652  0.79331584    -0.04900
C278        C  0.23872208  0.74023850  0.80988397     0.07300
C279        C  0.24869339  0.71857099  0.79306671     0.01100
H280        H  0.21981624  0.78335009  0.79923949     0.08700
H281        H  0.25809976  0.69774945  0.79874346     0.07800
N282        N  0.22775384  0.80506131  0.69678437    -0.36000
N283        N  0.23314434  0.79162942  0.67393983    -0.28200
C284        C  0.23432946  0.81561049  0.65418396    -0.03400
C285        C  0.22995598  0.84578818  0.66512967     0.05200
C286        C  0.22583748  0.83811396  0.69216875     0.03300
H287        H  0.23950069  0.81215738  0.63349778     0.08400
H288        H  0.22257291  0.85572406  0.70746353     0.07200
N289        N  0.70354927  0.44274315  0.34083446    -0.27200
N290        N  0.69007778  0.42365062  0.36366179    -0.35000
C291        C  0.65702398  0.38873833  0.35901741     0.01200
C292        C  0.64941303  0.38550922  0.33198304     0.07200
C293        C  0.67961922  0.42019484  0.32107761    -0.05900
H294        H  0.63939036  0.36764219  0.37428964     0.07800
H295        H  0.68314357  0.42906753  0.30040888     0.09000
Cu296      Cu  0.71549931  0.44682455  0.40047533     0.44200
Cu297      Cu  0.75187493  0.00021214  0.33760321     0.42000
Cu298      Cu  0.79188591  0.05002024  0.39996248     0.43900
N299        N  0.74189930  0.47914255  0.43476877    -0.34600
N300        N  0.76833305  0.01738218  0.43451106    -0.28800
C301        C  0.77745883  0.03033344  0.45969887    -0.04900
C302        C  0.75618502  0.49863180  0.47662765     0.07300
C303        C  0.73406954  0.46659635  0.46018345     0.01100
H304        H  0.79835767  0.06053298  0.46524880     0.08700
H305        H  0.71301563  0.43663102  0.46624082     0.07800
N306        N  0.81403924  0.07602291  0.36321797    -0.36000
N307        N  0.79937845  0.05819001  0.34027204    -0.28200
C308        C  0.82096616  0.08280695  0.32036826    -0.03400
C309        C  0.85080928  0.11755230  0.33138787     0.05200
C310        C  0.84545534  0.11212510  0.35857575     0.01500
H311        H  0.81600263  0.07551029  0.29947597     0.08400
H312        H  0.86341026  0.13266621  0.37391860     0.07200
N313        N  0.55578407  0.30203264  0.30902368    -0.27200
N314        N  0.57383527  0.31678918  0.28607405    -0.35000
C315        C  0.60989960  0.34820682  0.29074550     0.01200
C316        C  0.61507084  0.35343745  0.31794436     0.07200
C317        C  0.58021168  0.32352992  0.32893708    -0.05900
H318        H  0.63063121  0.36621795  0.27541087     0.07800
H319        H  0.57271013  0.31844541  0.34982744     0.09000
Cu320      Cu  0.54824164  0.29459617  0.24926124     0.44200
Cu321      Cu  0.99777965  0.25449939  0.31177557     0.42000
Cu322      Cu  0.94513831  0.21801908  0.24893338     0.43900
N323        N  0.51589090  0.27052341  0.21471405    -0.34600
N324        N  0.97765977  0.24399161  0.21456824    -0.28800
C325        C  0.96524110  0.23563881  0.18920074    -0.04900
C326        C  0.99734263  0.25750099  0.17264206     0.07300
C327        C  0.52897028  0.27919206  0.18946756     0.01100
H328        H  0.93532087  0.21436970  0.18326849     0.08700
H329        H  0.55919716  0.30002163  0.18379989     0.07800
N330        N  0.92150780  0.19271676  0.28573298    -0.36000
N331        N  0.94032161  0.20617481  0.30858046    -0.28200
C332        C  0.91753128  0.18219605  0.32833726    -0.03400
C333        C  0.88299253  0.15199201  0.31739038     0.05200
C334        C  0.88654921  0.15964898  0.29034855     0.03300
H335        H  0.92615588  0.18566598  0.34902637     0.08400
H336        H  0.86568593  0.14201378  0.27505199     0.07200
N337        N  0.93958583  0.24078778  0.00686942    -0.27200
N338        N  0.92145582  0.23746374  0.02976041    -0.35000
C339        C  0.88568917  0.23355885  0.02499539     0.01200
C340        C  0.88081530  0.23416545  0.99778761     0.07200
C341        C  0.91551417  0.23862918  0.98688545    -0.05900
H342        H  0.86504400  0.23114163  0.04027362     0.07800
H343        H  0.92322167  0.24138842  0.96602768     0.09000
Cu344      Cu  0.94685924  0.24048165  0.06659697     0.44200
Cu345      Cu  0.99741039  0.25078113  0.00438118     0.42000
Cu346      Cu  0.55012335  0.26720617  0.06736035     0.43900
N347        N  0.97925967  0.24965622  0.10123838    -0.34600
N348        N  0.51752258  0.26144177  0.10155308    -0.28800
C349        C  0.52999343  0.26662472  0.12696523    -0.04900
C350        C  0.49789342  0.25704893  0.14336975     0.07300
C351        C  0.96621868  0.24630338  0.12641001     0.01100
H352        H  0.55998369  0.27574175  0.13305703     0.08700
H353        H  0.93600997  0.23723873  0.13192375     0.07800
N354        N  0.57389514  0.26581498  0.03056316    -0.36000
N355        N  0.55502509  0.26040271  0.00771031    -0.28200
C356        C  0.57808149  0.25992401  0.98792924    -0.03400
C357        C  0.61288970  0.26480591  0.99884204     0.05200
C358        C  0.60919251  0.26844734  0.02590899     0.03300
H359        H  0.56953593  0.25503725  0.96722405     0.08400
H360        H  0.63028405  0.27204497  0.04117966     0.07200
N361        N  0.69771710  0.25705906  0.97565355    -0.27200
N362        N  0.68288770  0.26035540  0.95276153    -0.35000
C363        C  0.65102883  0.26426269  0.95752816     0.01200
C364        C  0.64557389  0.26368372  0.98473749     0.07200
C365        C  0.67582224  0.25923554  0.99563837    -0.05900
H366        H  0.63278241  0.26665731  0.94225060     0.07800
H367        H  0.68079046  0.25649620  0.01649677     0.09000
Cu368      Cu  0.70523438  0.25728648  0.91592133     0.44200
Cu369      Cu  0.74555069  0.24707066  0.97814761     0.42000
Cu370      Cu  0.78176686  0.23055773  0.91517969     0.43900
N371        N  0.72844494  0.24808192  0.88128361    -0.34600
N372        N  0.75492036  0.23629569  0.88098188    -0.28800
C373        C  0.76221534  0.23110726  0.85557477    -0.04900
C374        C  0.73969771  0.24068015  0.83915765     0.07300
C375        C  0.71876458  0.25142959  0.85610592     0.01100
H376        H  0.78309241  0.22199696  0.84949583     0.08700
H377        H  0.69762874  0.26050086  0.85057980     0.07800
N378        N  0.80696828  0.23199873  0.95197140    -0.36000
N379        N  0.79353664  0.23744096  0.97482226    -0.28200
C380        C  0.81709146  0.23794019  0.99460048    -0.03400
C381        C  0.84700267  0.23304172  0.98368709     0.05200
C382        C  0.83963582  0.22936933  0.95662338     0.03300
H383        H  0.81345469  0.24284996  0.01530620     0.08400
H384        H  0.85711052  0.22574772  0.94135251     0.07200
N385        N  0.75964370  0.05498974  0.64169546    -0.27200
N386        N  0.76527045  0.07408651  0.61886851    -0.35000
C387        C  0.76716218  0.10901144  0.62351511     0.01200
C388        C  0.76279629  0.11224499  0.65055025     0.07200
C389        C  0.75829055  0.07754748  0.66145362    -0.05900
H390        H  0.77064034  0.13011561  0.60824434     0.07800
H391        H  0.75295019  0.06867647  0.68212355     0.09000
Cu392      Cu  0.76749452  0.05090938  0.58205164     0.44200
Cu393      Cu  0.75047997  0.49751346  0.64492572     0.42000
Cu394      Cu  0.74067844  0.44771677  0.58256650     0.43900
N395        N  0.76157742  0.01859277  0.54775781    -0.34600
N396        N  0.74976594  0.48035304  0.54801770    -0.28800
C397        C  0.74595882  0.46740398  0.52283150    -0.04900
C398        C  0.75640609  0.49910677  0.50590044     0.07300
C399        C  0.76631687  0.03114205  0.52234199     0.01100
H400        H  0.73666449  0.43720447  0.51728420     0.08700
H401        H  0.77524236  0.06110591  0.51628251     0.07800
N402        N  0.73687446  0.42172407  0.61930788    -0.36000
N403        N  0.74004421  0.43955056  0.64225458    -0.28200
C404        C  0.73705120  0.41494380  0.66215678    -0.03400
C405        C  0.73217707  0.38021342  0.65113417     0.05200
C406        C  0.73222837  0.38563802  0.62394717     0.03300
H407        H  0.73939136  0.42223779  0.68304741     0.08400
H408        H  0.72965267  0.36510547  0.60860238     0.07200
N409        N  0.75274393  0.19577270  0.67350836    -0.27200
N410        N  0.75602340  0.18100585  0.69645913    -0.35000
C411        C  0.76063586  0.14956846  0.69178955     0.01200
C412        C  0.76056837  0.14433657  0.66459008     0.07200
C413        C  0.75564950  0.17426390  0.65359563    -0.05900
H414        H  0.76333170  0.13154542  0.70712214     0.07800
H415        H  0.75323215  0.17934999  0.63270890     0.09000
Cu416      Cu  0.75262564  0.20320116  0.73327192     0.44200
Cu417      Cu  0.74230323  0.24332320  0.67074955     0.42000
Cu418      Cu  0.72605524  0.27974093  0.73358199     0.43900
N419        N  0.74430505  0.22724784  0.76781584    -0.34600
N420        N  0.73258684  0.25376319  0.76795205    -0.28800
C421        C  0.72848657  0.26209652  0.79331592    -0.04900
C422        C  0.73872200  0.24023835  0.80988397     0.07300
C423        C  0.74869338  0.21857100  0.79306666     0.01100
H424        H  0.71981618  0.28334969  0.79923955     0.08700
H425        H  0.75809976  0.19774912  0.79874342     0.07800
N426        N  0.72775382  0.30506126  0.69678435    -0.36000
N427        N  0.73314439  0.29162930  0.67393978    -0.28200
C428        C  0.73432956  0.31561031  0.65418404    -0.03400
C429        C  0.72995609  0.34578802  0.66512955     0.05200
C430        C  0.72583740  0.33811383  0.69216867     0.03300
H431        H  0.73950136  0.31215695  0.63349692     0.08400
H432        H  0.72257269  0.35572393  0.70746344     0.07200
N433        N  0.70354940  0.94274318  0.34083443    -0.27200
N434        N  0.69007782  0.92365061  0.36366177    -0.35000
C435        C  0.65702401  0.88873838  0.35901742     0.01200
C436        C  0.64941310  0.88550923  0.33198306     0.07200
C437        C  0.67961936  0.92019488  0.32107759    -0.05900
H438        H  0.63939012  0.86764200  0.37428989     0.07800
H439        H  0.68314399  0.92906738  0.30040895     0.09000
Cu440      Cu  0.71549939  0.94682465  0.40047526     0.44200
Cu441      Cu  0.75187478  0.50021223  0.33760339     0.42000
Cu442      Cu  0.79188589  0.55002010  0.39996245     0.43900
N443        N  0.74189936  0.97914279  0.43476868    -0.34600
N444        N  0.76833300  0.51738208  0.43451106    -0.28800
C445        C  0.77745868  0.53033323  0.45969882    -0.04900
C446        C  0.75618499  0.99863188  0.47662760     0.07300
C447        C  0.73406943  0.96659618  0.46018339     0.01100
H448        H  0.79835791  0.56053337  0.46524882     0.08700
H449        H  0.71301607  0.93663226  0.46624027     0.07800
N450        N  0.81403947  0.57602320  0.36321812    -0.36000
N451        N  0.79937859  0.55819011  0.34027211    -0.28200
C452        C  0.82096609  0.58280695  0.32036843    -0.03400
C453        C  0.85080933  0.61755232  0.33138789     0.05200
C454        C  0.84545539  0.61212507  0.35857570     0.01500
H455        H  0.81600219  0.57550967  0.29947514     0.08400
H456        H  0.86341139  0.63266759  0.37391949     0.07200
N457        N  0.55578413  0.80203270  0.30902365    -0.27200
N458        N  0.57383530  0.81678929  0.28607404    -0.35000
C459        C  0.60989970  0.84820689  0.29074549     0.01200
C460        C  0.61507094  0.85343762  0.31794428     0.07200
C461        C  0.58021183  0.82352999  0.32893712    -0.05900
H462        H  0.63063126  0.86621863  0.27541075     0.07800
H463        H  0.57271065  0.81844592  0.34982685     0.09000
Cu464      Cu  0.54824163  0.79459606  0.24926125     0.44200
Cu465      Cu  0.99777963  0.75449939  0.31177558     0.42000
Cu466      Cu  0.94513837  0.71801915  0.24893341     0.43900
N467        N  0.51589112  0.77052351  0.21471389    -0.34600
N468        N  0.97765952  0.74399145  0.21456814    -0.28800
C469        C  0.96524109  0.73563882  0.18920075    -0.04900
C470        C  0.99734237  0.75750064  0.17264203     0.07300
C471        C  0.52897003  0.77919191  0.18946761     0.01100
H472        H  0.93531872  0.71436782  0.18326813     0.08700
H473        H  0.55920007  0.80002330  0.18379942     0.07800
N474        N  0.92150782  0.69271673  0.28573291    -0.36000
N475        N  0.94032162  0.70617483  0.30858027    -0.28200
C476        C  0.91753125  0.68219614  0.32833741    -0.03400
C477        C  0.88299244  0.65199184  0.31739015     0.05200
C478        C  0.88654928  0.65964910  0.29034857     0.03300
H479        H  0.92615514  0.68566527  0.34902411     0.08400
H480        H  0.86568528  0.64201308  0.27505138     0.07200
N481        N  0.93958582  0.74078779  0.00686946    -0.27200
N482        N  0.92145589  0.73746370  0.02976037    -0.35000
C483        C  0.88568905  0.73355865  0.02499543     0.01200
C484        C  0.88081533  0.73416540  0.99778760     0.07200
C485        C  0.91551420  0.73862924  0.98688532    -0.05900
H486        H  0.86504421  0.73114092  0.04027326     0.07800
H487        H  0.92322150  0.74138865  0.96602820     0.09000
Cu488      Cu  0.94685924  0.74048150  0.06659694     0.44200
Cu489      Cu  0.99741042  0.75078123  0.00438119     0.42000
Cu490      Cu  0.55012333  0.76720601  0.06736036     0.43900
N491        N  0.97925982  0.74965634  0.10123842    -0.34600
N492        N  0.51752259  0.76144173  0.10155310    -0.28800
C493        C  0.52999339  0.76662464  0.12696524    -0.04900
C494        C  0.49789351  0.75704886  0.14336975     0.07300
C495        C  0.96621872  0.74630329  0.12641003     0.01100
H496        H  0.55998420  0.77574149  0.13305720     0.08700
H497        H  0.93601056  0.73723894  0.13192367     0.07800
N498        N  0.57389515  0.76581489  0.03056319    -0.36000
N499        N  0.55502514  0.76040268  0.00771033    -0.28200
C500        C  0.57808153  0.75992392  0.98792922    -0.03400
C501        C  0.61288985  0.76480602  0.99884207     0.05200
C502        C  0.60919247  0.76844723  0.02590901     0.03300
H503        H  0.56953623  0.75503755  0.96722428     0.08400
H504        H  0.63028435  0.77204516  0.04117989     0.07200
N505        N  0.69771725  0.75705915  0.97565353    -0.27200
N506        N  0.68288779  0.76035543  0.95276156    -0.35000
C507        C  0.65102895  0.76426276  0.95752818     0.01200
C508        C  0.64557393  0.76368371  0.98473743     0.07200
C509        C  0.67582239  0.75923562  0.99563846    -0.05900
H510        H  0.63278195  0.76665672  0.94225046     0.07800
H511        H  0.68079058  0.75649665  0.01649607     0.09000
Cu512      Cu  0.70523447  0.75728658  0.91592136     0.44200
Cu513      Cu  0.74555069  0.74707051  0.97814760     0.42000
Cu514      Cu  0.78176681  0.73055757  0.91517967     0.43900
N515        N  0.72844507  0.74808201  0.88128363    -0.34600
N516        N  0.75492047  0.73629559  0.88098178    -0.28800
C517        C  0.76221531  0.73110742  0.85557473    -0.04900
C518        C  0.73969796  0.74068028  0.83915763     0.07300
C519        C  0.71876458  0.75142959  0.85610596     0.01100
H520        H  0.78309383  0.72199661  0.84949522     0.08700
H521        H  0.69762917  0.76050084  0.85057995     0.07800
N522        N  0.80696822  0.73199854  0.95197138    -0.36000
N523        N  0.79353662  0.73744076  0.97482226    -0.28200
C524        C  0.81709141  0.73793999  0.99460050    -0.03400
C525        C  0.84700263  0.73304157  0.98368708     0.05200
C526        C  0.83963575  0.72936919  0.95662337     0.03300
H527        H  0.81345463  0.74284979  0.01530626     0.08400
H528        H  0.85711037  0.72574728  0.94135237     0.07200
N529        N  0.75964371  0.55498978  0.64169551    -0.27200
N530        N  0.76527042  0.57408646  0.61886858    -0.35000
C531        C  0.76716227  0.60901159  0.62351504     0.01200
C532        C  0.76279620  0.61224493  0.65055021     0.07200
C533        C  0.75829055  0.57754752  0.66145367    -0.05900
H534        H  0.77064022  0.63011504  0.60824475     0.07800
H535        H  0.75294970  0.56867645  0.68212355     0.09000
Cu536      Cu  0.76749439  0.55090940  0.58205161     0.44200
Cu537      Cu  0.75047984  0.99751337  0.64492568     0.42000
Cu538      Cu  0.74067842  0.94771664  0.58256645     0.43900
N539        N  0.76157727  0.51859271  0.54775773    -0.34600
N540        N  0.74976602  0.98035334  0.54801778    -0.28800
C541        C  0.74595874  0.96740372  0.52283133    -0.04900
C542        C  0.75640625  0.99910712  0.50590043     0.07300
C543        C  0.76631681  0.53114203  0.52234195     0.01100
H544        H  0.73666581  0.93720852  0.51728467     0.08700
H545        H  0.77524200  0.56110570  0.51628247     0.07800
N546        N  0.73687447  0.92172374  0.61930774    -0.36000
N547        N  0.74004427  0.93955057  0.64225457    -0.28200
C548        C  0.73705128  0.91494400  0.66215654    -0.03400
C549        C  0.73217715  0.88021350  0.65113417     0.05200
C550        C  0.73222844  0.88563813  0.62394730     0.03300
H551        H  0.73939178  0.92223891  0.68304863     0.08400
H552        H  0.72965222  0.86510336  0.60860108     0.07200
N553        N  0.75274389  0.69577258  0.67350840    -0.27200
N554        N  0.75602344  0.68100545  0.69645930    -0.35000
C555        C  0.76063563  0.64956850  0.69178929     0.01200
C556        C  0.76056843  0.64433643  0.66459016     0.07200
C557        C  0.75564958  0.67426398  0.65359573    -0.05900
H558        H  0.76333198  0.63154245  0.70712428     0.07800
H559        H  0.75323269  0.67935067  0.63270865     0.09000
Cu560      Cu  0.75262559  0.70320102  0.73327196     0.44200
Cu561      Cu  0.74230333  0.74332333  0.67074956     0.42000
Cu562      Cu  0.72605535  0.77974100  0.73358199     0.43900
N563        N  0.74430504  0.72724783  0.76781586    -0.34600
N564        N  0.73258686  0.75376320  0.76795200    -0.28800
C565        C  0.72848663  0.76209650  0.79331584    -0.04900
C566        C  0.73872207  0.74023849  0.80988396     0.07300
C567        C  0.74869342  0.71857097  0.79306672     0.01100
H568        H  0.71981619  0.78335022  0.79923951     0.08700
H569        H  0.75809969  0.69774957  0.79874344     0.07800
N570        N  0.72775390  0.80506131  0.69678437    -0.36000
N571        N  0.73314439  0.79162941  0.67393983    -0.28200
C572        C  0.73432951  0.81561049  0.65418396    -0.03400
C573        C  0.72995604  0.84578818  0.66512967     0.05200
C574        C  0.72583753  0.83811397  0.69216875     0.03300
H575        H  0.73950074  0.81215738  0.63349778     0.08400
H576        H  0.72257297  0.85572406  0.70746353     0.07200
loop_ 
_geom_bond_atom_site_label_1 
_geom_bond_atom_site_label_2 
_geom_bond_distance 
_geom_bond_site_symmetry_2 
_ccdc_geom_bond_type 
N1            N2   1.324       .  A
N1            C5   1.347       .  A
N1         Cu153   2.092       .  S
N2            C3   1.348       .  A
N2           Cu8   2.083       .  S
C3            C4   1.384       .  A
C3            H6   1.082       .  S
C4            C5   1.386       .  A
C4           C28   1.478       .  S
C5            H7   1.082       .  S
Cu8          N11   2.083       .  S
Cu9          N19   2.092       .  S
Cu9         N145   2.092   1_545  S
Cu10         N12   2.074       .  S
Cu10         N18   2.074       .  S
N11         N156   1.323       .  A
N11          C15   1.347       .  A
N12         N155   1.323   1_545  A
N12          C13   1.346       .  A
C13         C158   1.382   1_545  A
C13          H16   1.082       .  S
C14          C15   1.385       .  A
C14         C157   1.382       .  A
C14         C110   1.472       .  S
C15          H17   1.082       .  S
N18          N19   1.323       .  A
N18          C22   1.346       .  A
N19          C20   1.349       .  A
C20          C21   1.387       .  A
C20          H23   1.081       .  S
C21          C22   1.383       .  A
C21          C45   1.478       .  S
C22          H24   1.082       .  S
N25          N26   1.323       .  A
N25          C29   1.349       .  A
N25        Cu321   2.092   1_455  S
N26          C27   1.346       .  A
N26         Cu32   2.078       .  S
C27          C28   1.383       .  A
C27          H30   1.082       .  S
C28          C29   1.387       .  A
C29          H31   1.082       .  S
Cu32         N35   2.077       .  S
Cu33         N43   2.092       .  S
Cu33        N313   2.092       .  S
Cu34         N36   2.080       .  S
Cu34         N42   2.081       .  S
N35         N324   1.323   1_455  A
N35          C39   1.346       .  A
N36         N323   1.323       .  A
N36          C37   1.346       .  A
C37          C38   1.384       .  A
C37          H40   1.082       .  S
C38         C327   1.383       .  A
C38         C350   1.473       .  S
C39         C326   1.383   1_455  A
C39          H41   1.082       .  S
N42          N43   1.324       .  A
N42          C46   1.347       .  A
N43          C44   1.347       .  A
C44          C45   1.386       .  A
C44          H47   1.081       .  S
C45          C46   1.384       .  A
C46          H48   1.082       .  S
N49          N50   1.323       .  A
N49          C53   1.348   1_554  A
N49         Cu57   2.090       .  S
N50          C51   1.346       .  A
N50         Cu56   2.076       .  S
C51          C52   1.383   1_554  A
C51          H54   1.082       .  S
C52          C53   1.387       .  A
C52          C93   1.477       .  S
C53          H55   1.081       .  S
Cu56         N59   2.076       .  S
Cu57        N355   2.090       .  S
Cu58         N60   2.082       .  S
Cu58         N66   2.083       .  S
N59         N348   1.323       .  A
N59          C63   1.346       .  A
N60         N347   1.323   1_455  A
N60          C61   1.347       .  A
C61          C62   1.384   1_455  A
C61          H64   1.082       .  S
C62         C351   1.383       .  A
C62         C326   1.473       .  S
C63         C350   1.383       .  A
C63          H65   1.082       .  S
N66          N67   1.324       .  A
N66          C70   1.347       .  A
N67          C68   1.347   1_554  A
N67        Cu345   2.090   1_455  S
C68          C69   1.385       .  A
C68          H71   1.081       .  S
C69          C70   1.384   1_556  A
C69          C76   1.478       .  S
C70          H72   1.082       .  S
N73          N74   1.323       .  A
N73          C77   1.348       .  A
N73         Cu81   2.090       .  S
N74          C75   1.346       .  A
N74         Cu80   2.076       .  S
C75          C76   1.383       .  A
C75          H78   1.082       .  S
C76          C77   1.387       .  A
C77          H79   1.081   1_556  S
Cu80         N83   2.076       .  S
Cu81         N91   2.090       .  S
Cu82         N84   2.082       .  S
Cu82         N90   2.082       .  S
N83          N84   1.323       .  A
N83          C87   1.346       .  A
N84          C85   1.347       .  A
C85          C86   1.384       .  A
C85          H88   1.082       .  S
C86          C87   1.383       .  A
C86         C134   1.473       .  S
C87          H89   1.082       .  S
N90          N91   1.324       .  A
N90          C94   1.347       .  A
N91          C92   1.347       .  A
C92          C93   1.385       .  A
C92          H95   1.081   1_556  S
C93          C94   1.384       .  A
C94          H96   1.082       .  S
N97          N98   1.324       .  A
N97         C101   1.347       .  A
N97        Cu249   2.092   1_545  S
N98          C99   1.348       .  A
N98        Cu104   2.084       .  S
C99         C100   1.384       .  A
C99         H102   1.082       .  S
C100        C101   1.386       .  A
C100        C124   1.478       .  S
C101        H103   1.082       .  S
Cu104       N107   2.083       .  S
Cu105       N115   2.092       .  S
Cu105       N241   2.092       .  S
Cu106       N108   2.074       .  S
Cu106       N114   2.074       .  S
N107        N252   1.323   1_545  A
N107        C111   1.347       .  A
N108        N251   1.323       .  A
N108        C109   1.345       .  A
C109        C110   1.382       .  A
C109        H112   1.082       .  S
C110        C255   1.385       .  A
C111        C254   1.385   1_545  A
C111        H113   1.082       .  S
N114        N115   1.323       .  A
N114        C118   1.346       .  A
N115        C116   1.349       .  A
C116        C117   1.387       .  A
C116        H119   1.081       .  S
C117        C118   1.383       .  A
C117        C141   1.478       .  S
C118        H120   1.082       .  S
N121        N122   1.323       .  A
N121        C125   1.349       .  A
N121       Cu129   2.092       .  S
N122        C123   1.346       .  A
N122       Cu128   2.078       .  S
C123        C124   1.384       .  A
C123        H126   1.082       .  S
C124        C125   1.387       .  A
C125        H127   1.081       .  S
Cu128       N131   2.078       .  S
Cu129       N139   2.092       .  S
Cu130       N132   2.080       .  S
Cu130       N138   2.081       .  S
N131        N132   1.323       .  A
N131        C135   1.346       .  A
N132        C133   1.346       .  A
C133        C134   1.384       .  A
C133        H136   1.082       .  S
C134        C135   1.383       .  A
C135        H137   1.082       .  S
N138        N139   1.324       .  A
N138        C142   1.347       .  A
N139        C140   1.347       .  A
C140        C141   1.386       .  A
C140        H143   1.081       .  S
C141        C142   1.384       .  A
C142        H144   1.082       .  S
N145        N146   1.324       .  A
N145        C149   1.347       .  A
N146        C147   1.348       .  A
N146       Cu152   2.083       .  S
C147        C148   1.384       .  A
C147        H150   1.082       .  S
C148        C149   1.386       .  A
C148        C172   1.478       .  S
C149        H151   1.082       .  S
Cu152       N155   2.083       .  S
Cu153       N163   2.092       .  S
Cu154       N156   2.074       .  S
Cu154       N162   2.074       .  S
N155        C159   1.347       .  A
N156        C157   1.346       .  A
C157        H160   1.082       .  S
C158        C159   1.385       .  A
C158        C254   1.472       .  S
C159        H161   1.082       .  S
N162        N163   1.323       .  A
N162        C166   1.346       .  A
N163        C164   1.349       .  A
C164        C165   1.387       .  A
C164        H167   1.081       .  S
C165        C166   1.383       .  A
C165        C189   1.478       .  S
C166        H168   1.082       .  S
N169        N170   1.323       .  A
N169        C173   1.349       .  A
N169       Cu465   2.092   1_455  S
N170        C171   1.346       .  A
N170       Cu176   2.078       .  S
C171        C172   1.383       .  A
C171        H174   1.082       .  S
C172        C173   1.387       .  A
C173        H175   1.081       .  S
Cu176       N179   2.077       .  S
Cu177       N457   2.092       .  S
Cu177       N187   2.092       .  S
Cu178       N180   2.080       .  S
Cu178       N186   2.081       .  S
N179        N468   1.323   1_455  A
N179        C183   1.346       .  A
N180        N467   1.323       .  A
N180        C181   1.346       .  A
C181        C182   1.384       .  A
C181        H184   1.082       .  S
C182        C471   1.383       .  A
C182        C494   1.473       .  S
C183        C470   1.383   1_455  A
C183        H185   1.082       .  S
N186        N187   1.324       .  A
N186        C190   1.347       .  A
N187        C188   1.347       .  A
C188        C189   1.386       .  A
C188        H191   1.081       .  S
C189        C190   1.384       .  A
C190        H192   1.082       .  S
N193        N194   1.323       .  A
N193        C197   1.348   1_554  A
N193       Cu201   2.090       .  S
N194        C195   1.346       .  A
N194       Cu200   2.076       .  S
C195        C196   1.383   1_554  A
C195        H198   1.082       .  S
C196        C197   1.387       .  A
C196        C237   1.477       .  S
C197        H199   1.081       .  S
Cu200       N203   2.076       .  S
Cu201       N499   2.090       .  S
Cu202       N204   2.082       .  S
Cu202       N210   2.083       .  S
N203        N492   1.323       .  A
N203        C207   1.346       .  A
N204        N491   1.323   1_455  A
N204        C205   1.347       .  A
C205        C206   1.384   1_455  A
C205        H208   1.082       .  S
C206        C495   1.383       .  A
C206        C470   1.473       .  S
C207        C494   1.383       .  A
C207        H209   1.082       .  S
N210        N211   1.324       .  A
N210        C214   1.347       .  A
N211        C212   1.347   1_554  A
N211       Cu489   2.090   1_455  S
C212        C213   1.385       .  A
C212        H215   1.081       .  S
C213        C214   1.384   1_556  A
C213        C220   1.478       .  S
C214        H216   1.082       .  S
N217        N218   1.323       .  A
N217        C221   1.348       .  A
N217       Cu225   2.090       .  S
N218        C219   1.346       .  A
N218       Cu224   2.076       .  S
C219        C220   1.383       .  A
C219        H222   1.082       .  S
C220        C221   1.387       .  A
C221        H223   1.081   1_556  S
Cu224       N227   2.076       .  S
Cu225       N235   2.090       .  S
Cu226       N228   2.082       .  S
Cu226       N234   2.082       .  S
N227        N228   1.323       .  A
N227        C231   1.346       .  A
N228        C229   1.347       .  A
C229        C230   1.384       .  A
C229        H232   1.082       .  S
C230        C231   1.383       .  A
C230        C278   1.473       .  S
C231        H233   1.082       .  S
N234        N235   1.324       .  A
N234        C238   1.347       .  A
N235        C236   1.347       .  A
C236        C237   1.385       .  A
C236        H239   1.081   1_556  S
C237        C238   1.384       .  A
C238        H240   1.082       .  S
N241        N242   1.324       .  A
N241        C245   1.347       .  A
N242        C243   1.348       .  A
N242       Cu248   2.084       .  S
C243        C244   1.384       .  A
C243        H246   1.082       .  S
C244        C245   1.386       .  A
C244        C268   1.478       .  S
C245        H247   1.082       .  S
Cu248       N251   2.083       .  S
Cu249       N259   2.092       .  S
Cu250       N252   2.074       .  S
Cu250       N258   2.074       .  S
N251        C255   1.347       .  A
N252        C253   1.346       .  A
C253        C254   1.382       .  A
C253        H256   1.082       .  S
C255        H257   1.082       .  S
N258        N259   1.323       .  A
N258        C262   1.346       .  A
N259        C260   1.349       .  A
C260        C261   1.387       .  A
C260        H263   1.081       .  S
C261        C262   1.383       .  A
C261        C285   1.478       .  S
C262        H264   1.082       .  S
N265        N266   1.323       .  A
N265        C269   1.349       .  A
N265       Cu273   2.092       .  S
N266        C267   1.346       .  A
N266       Cu272   2.078       .  S
C267        C268   1.384       .  A
C267        H270   1.082       .  S
C268        C269   1.387       .  A
C269        H271   1.081       .  S
Cu272       N275   2.078       .  S
Cu273       N283   2.092       .  S
Cu274       N276   2.080       .  S
Cu274       N282   2.081       .  S
N275        N276   1.323       .  A
N275        C279   1.346       .  A
N276        C277   1.346       .  A
C277        C278   1.384       .  A
C277        H280   1.082       .  S
C278        C279   1.383       .  A
C279        H281   1.082       .  S
N282        N283   1.324       .  A
N282        C286   1.347       .  A
N283        C284   1.347       .  A
C284        C285   1.386       .  A
C284        H287   1.081       .  S
C285        C286   1.384       .  A
C286        H288   1.082       .  S
N289        N290   1.324       .  A
N289        C293   1.347       .  A
N289       Cu441   2.092       .  S
N290        C291   1.348       .  A
N290       Cu296   2.083       .  S
C291        C292   1.384       .  A
C291        H294   1.082       .  S
C292        C293   1.386       .  A
C292        C316   1.478       .  S
C293        H295   1.082       .  S
Cu296       N299   2.083       .  S
Cu297       N433   2.092   1_545  S
Cu297       N307   2.092       .  S
Cu298       N300   2.074       .  S
Cu298       N306   2.074       .  S
N299        N444   1.323       .  A
N299        C303   1.347       .  A
N300        N443   1.323   1_545  A
N300        C301   1.346       .  A
C301        C446   1.382   1_545  A
C301        H304   1.082       .  S
C302        C445   1.382       .  A
C302        C303   1.385       .  A
C302        C398   1.472       .  S
C303        H305   1.082       .  S
N306        N307   1.323       .  A
N306        C310   1.346       .  A
N307        C308   1.349       .  A
C308        C309   1.387       .  A
C308        H311   1.081       .  S
C309        C310   1.383       .  A
C309        C333   1.478       .  S
C310        H312   1.082       .  S
N313        N314   1.323       .  A
N313        C317   1.349       .  A
N314        C315   1.346       .  A
N314       Cu320   2.078       .  S
C315        C316   1.383       .  A
C315        H318   1.082       .  S
C316        C317   1.387       .  A
C317        H319   1.081       .  S
Cu320       N323   2.077       .  S
Cu321       N331   2.092       .  S
Cu322       N324   2.080       .  S
Cu322       N330   2.081       .  S
N323        C327   1.346       .  A
N324        C325   1.346       .  A
C325        C326   1.384       .  A
C325        H328   1.082       .  S
C327        H329   1.082       .  S
N330        N331   1.324       .  A
N330        C334   1.347       .  A
N331        C332   1.347       .  A
C332        C333   1.386       .  A
C332        H335   1.081       .  S
C333        C334   1.384       .  A
C334        H336   1.082       .  S
N337        N338   1.323       .  A
N337        C341   1.348   1_554  A
N337       Cu345   2.090       .  S
N338        C339   1.346       .  A
N338       Cu344   2.076       .  S
C339        C340   1.383   1_554  A
C339        H342   1.082       .  S
C340        C341   1.387       .  A
C340        C381   1.477       .  S
C341        H343   1.081       .  S
Cu344       N347   2.076       .  S
Cu346       N348   2.082       .  S
Cu346       N354   2.083       .  S
N347        C351   1.346       .  A
N348        C349   1.347       .  A
C349        C350   1.384       .  A
C349        H352   1.082       .  S
C351        H353   1.082       .  S
N354        N355   1.324       .  A
N354        C358   1.348       .  A
N355        C356   1.347   1_554  A
C356        C357   1.385       .  A
C356        H359   1.081       .  S
C357        C358   1.384   1_556  A
C357        C364   1.478       .  S
C358        H360   1.082       .  S
N361        N362   1.323       .  A
N361        C365   1.348       .  A
N361       Cu369   2.090       .  S
N362        C363   1.346       .  A
N362       Cu368   2.076       .  S
C363        C364   1.383       .  A
C363        H366   1.082       .  S
C364        C365   1.387       .  A
C365        H367   1.081   1_556  S
Cu368       N371   2.076       .  S
Cu369       N379   2.090       .  S
Cu370       N372   2.082       .  S
Cu370       N378   2.082       .  S
N371        N372   1.323       .  A
N371        C375   1.346       .  A
N372        C373   1.347       .  A
C373        C374   1.384       .  A
C373        H376   1.082       .  S
C374        C375   1.383       .  A
C374        C422   1.473       .  S
C375        H377   1.082       .  S
N378        N379   1.324       .  A
N378        C382   1.347       .  A
N379        C380   1.347       .  A
C380        C381   1.385       .  A
C380        H383   1.081   1_556  S
C381        C382   1.384       .  A
C382        H384   1.082       .  S
N385        N386   1.324       .  A
N385        C389   1.347       .  A
N385       Cu537   2.092   1_545  S
N386        C387   1.348       .  A
N386       Cu392   2.084       .  S
C387        C388   1.384       .  A
C387        H390   1.082       .  S
C388        C389   1.386       .  A
C388        C412   1.478       .  S
C389        H391   1.082       .  S
Cu392       N395   2.083       .  S
Cu393       N529   2.092       .  S
Cu393       N403   2.092       .  S
Cu394       N396   2.074       .  S
Cu394       N402   2.074       .  S
N395        N540   1.323   1_545  A
N395        C399   1.347       .  A
N396        N539   1.323       .  A
N396        C397   1.345       .  A
C397        C398   1.382       .  A
C397        H400   1.082       .  S
C398        C543   1.385       .  A
C399        C542   1.385   1_545  A
C399        H401   1.082       .  S
N402        N403   1.323       .  A
N402        C406   1.346       .  A
N403        C404   1.349       .  A
C404        C405   1.387       .  A
C404        H407   1.081       .  S
C405        C406   1.383       .  A
C405        C429   1.478       .  S
C406        H408   1.082       .  S
N409        N410   1.323       .  A
N409        C413   1.349       .  A
N409       Cu417   2.092       .  S
N410        C411   1.346       .  A
N410       Cu416   2.078       .  S
C411        C412   1.384       .  A
C411        H414   1.082       .  S
C412        C413   1.387       .  A
C413        H415   1.081       .  S
Cu416       N419   2.078       .  S
Cu417       N427   2.092       .  S
Cu418       N420   2.080       .  S
Cu418       N426   2.081       .  S
N419        N420   1.323       .  A
N419        C423   1.346       .  A
N420        C421   1.346       .  A
C421        C422   1.384       .  A
C421        H424   1.082       .  S
C422        C423   1.383       .  A
C423        H425   1.082       .  S
N426        N427   1.324       .  A
N426        C430   1.347       .  A
N427        C428   1.347       .  A
C428        C429   1.386       .  A
C428        H431   1.081       .  S
C429        C430   1.384       .  A
C430        H432   1.082       .  S
N433        N434   1.324       .  A
N433        C437   1.347       .  A
N434        C435   1.348       .  A
N434       Cu440   2.083       .  S
C435        C436   1.384       .  A
C435        H438   1.082       .  S
C436        C437   1.386       .  A
C436        C460   1.478       .  S
C437        H439   1.081       .  S
Cu440       N443   2.083       .  S
Cu441       N451   2.092       .  S
Cu442       N444   2.074       .  S
Cu442       N450   2.074       .  S
N443        C447   1.347       .  A
N444        C445   1.346       .  A
C445        H448   1.082       .  S
C446        C447   1.385       .  A
C446        C542   1.472       .  S
C447        H449   1.082       .  S
N450        N451   1.323       .  A
N450        C454   1.346       .  A
N451        C452   1.349       .  A
C452        C453   1.387       .  A
C452        H455   1.081       .  S
C453        C454   1.383       .  A
C453        C477   1.478       .  S
C454        H456   1.082       .  S
N457        N458   1.323       .  A
N457        C461   1.349       .  A
N458        C459   1.346       .  A
N458       Cu464   2.078       .  S
C459        C460   1.383       .  A
C459        H462   1.082       .  S
C460        C461   1.387       .  A
C461        H463   1.081       .  S
Cu464       N467   2.077       .  S
Cu465       N475   2.092       .  S
Cu466       N468   2.080       .  S
Cu466       N474   2.081       .  S
N467        C471   1.346       .  A
N468        C469   1.346       .  A
C469        C470   1.384       .  A
C469        H472   1.082       .  S
C471        H473   1.082       .  S
N474        N475   1.324       .  A
N474        C478   1.347       .  A
N475        C476   1.347       .  A
C476        C477   1.386       .  A
C476        H479   1.081       .  S
C477        C478   1.384       .  A
C478        H480   1.082       .  S
N481        N482   1.323       .  A
N481        C485   1.348   1_554  A
N481       Cu489   2.090       .  S
N482        C483   1.346       .  A
N482       Cu488   2.076       .  S
C483        C484   1.383   1_554  A
C483        H486   1.082       .  S
C484        C485   1.387       .  A
C484        C525   1.477       .  S
C485        H487   1.081       .  S
Cu488       N491   2.076       .  S
Cu490       N492   2.082       .  S
Cu490       N498   2.083       .  S
N491        C495   1.346       .  A
N492        C493   1.347       .  A
C493        C494   1.384       .  A
C493        H496   1.082       .  S
C495        H497   1.082       .  S
N498        N499   1.324       .  A
N498        C502   1.348       .  A
N499        C500   1.347   1_554  A
C500        C501   1.385       .  A
C500        H503   1.081       .  S
C501        C502   1.384   1_556  A
C501        C508   1.478       .  S
C502        H504   1.082       .  S
N505        N506   1.323       .  A
N505        C509   1.348       .  A
N505       Cu513   2.090       .  S
N506        C507   1.346       .  A
N506       Cu512   2.076       .  S
C507        C508   1.383       .  A
C507        H510   1.082       .  S
C508        C509   1.387       .  A
C509        H511   1.081   1_556  S
Cu512       N515   2.076       .  S
Cu513       N523   2.090       .  S
Cu514       N516   2.082       .  S
Cu514       N522   2.082       .  S
N515        N516   1.323       .  A
N515        C519   1.346       .  A
N516        C517   1.347       .  A
C517        C518   1.384       .  A
C517        H520   1.082       .  S
C518        C519   1.383       .  A
C518        C566   1.473       .  S
C519        H521   1.082       .  S
N522        N523   1.324       .  A
N522        C526   1.347       .  A
N523        C524   1.347       .  A
C524        C525   1.385       .  A
C524        H527   1.081   1_556  S
C525        C526   1.384       .  A
C526        H528   1.082       .  S
N529        N530   1.324       .  A
N529        C533   1.347       .  A
N530        C531   1.348       .  A
N530       Cu536   2.084       .  S
C531        C532   1.384       .  A
C531        H534   1.082       .  S
C532        C533   1.386       .  A
C532        C556   1.478       .  S
C533        H535   1.082       .  S
Cu536       N539   2.083       .  S
Cu537       N547   2.092       .  S
Cu538       N540   2.074       .  S
Cu538       N546   2.074       .  S
N539        C543   1.347       .  A
N540        C541   1.346       .  A
C541        C542   1.382       .  A
C541        H544   1.082       .  S
C543        H545   1.082       .  S
N546        N547   1.323       .  A
N546        C550   1.346       .  A
N547        C548   1.349       .  A
C548        C549   1.387       .  A
C548        H551   1.081       .  S
C549        C550   1.383       .  A
C549        C573   1.478       .  S
C550        H552   1.082       .  S
N553        N554   1.323       .  A
N553        C557   1.349       .  A
N553       Cu561   2.092       .  S
N554        C555   1.346       .  A
N554       Cu560   2.078       .  S
C555        C556   1.383       .  A
C555        H558   1.082       .  S
C556        C557   1.387       .  A
C557        H559   1.081       .  S
Cu560       N563   2.078       .  S
Cu561       N571   2.092       .  S
Cu562       N564   2.080       .  S
Cu562       N570   2.081       .  S
N563        N564   1.323       .  A
N563        C567   1.346       .  A
N564        C565   1.346       .  A
C565        C566   1.384       .  A
C565        H568   1.082       .  S
C566        C567   1.383       .  A
C567        H569   1.082       .  S
N570        N571   1.324       .  A
N570        C574   1.347       .  A
N571        C572   1.347       .  A
C572        C573   1.386       .  A
C572        H575   1.081       .  S
C573        C574   1.384       .  A
C574        H576   1.082       .  S
