geometry optimzed in LAMMPS
_audit_creation_date              2020-11-30 
_audit_creation_method            'lammps2cif' 
_symmetry_space_group_name_H-M    'P1' 
_symmetry_Int_Tables_number       1 
_symmetry_cell_setting            triclinic 
loop_ 
_symmetry_equiv_pos_as_xyz 
  x,y,z 
_cell_length_a                    36.35406394 
_cell_length_b                    36.23278574385452 
_cell_length_c                    35.50201793479793 
_cell_angle_alpha                 85.68367531275491 
_cell_angle_beta                  85.86431832129861 
_cell_angle_gamma                 90.58047987316941 
loop_ 
_atom_site_label 
_atom_site_type_symbol 
_atom_site_fract_x 
_atom_site_fract_y 
_atom_site_fract_z 
_atom_site_charge 
C1          C  0.13194488  0.10933018  0.01464648     0.86800
C2          C  0.16275773  0.08256225  0.02181366    -0.53400
C3          C  0.18529033  0.09270680  0.04831733     0.09700
C4          C  0.17489464  0.13019879  0.06484173     0.20700
C5          C  0.11149060  0.11359835  0.05325348    -0.54100
C6          C  0.13392708  0.12458210  0.07971359     0.09800
C7          C  0.15087649  0.14628299  0.00342935    -0.53700
C8          C  0.17343029  0.15786208  0.02922114     0.10400
H9          H  0.16510952  0.05637917  0.34210284     0.14900
H10         H  0.19334470  0.13890069  0.08626741     0.00700
H11         H  0.08211929  0.10815178  0.05921935     0.15200
H12         H  0.14669226  0.16219782  0.31020929     0.15000
C13         C  0.35767126  0.15293732  0.01159599     0.86800
C14         C  0.34698532  0.13055423  0.31225115    -0.53400
C15         C  0.34085082  0.15205487  0.28006381     0.09700
C16         C  0.34621725  0.19390785  0.28342966     0.20700
C17         C  0.39122611  0.17623053  0.32939341    -0.54100
C18         C  0.38575709  0.19756501  0.29696215     0.09800
C19         C  0.32696192  0.18047270  0.01691436    -0.53700
C20         C  0.32020366  0.20181698  0.31828072     0.10400
H21         H  0.34475260  0.10054090  0.31427280     0.14900
H22         H  0.34136766  0.21129865  0.25718202     0.00700
H23         H  0.41749369  0.17496384  0.00885711     0.15200
H24         H  0.31061043  0.18166055  0.04367464     0.15000
C25         C  0.08588704  0.35598452  0.31389480     0.86800
C26         C  0.09498996  0.37584165  0.27477746    -0.53400
C27         C  0.10451281  0.35241198  0.24743074     0.09700
C28         C  0.10486804  0.31099623  0.26233515     0.20700
C29         C  0.05582808  0.32770196  0.30873387    -0.54100
C30         C  0.06495041  0.30448644  0.28102618     0.09800
C31         C  0.11938190  0.33371092  0.32247525    -0.52900
C32         C  0.13006718  0.30976933  0.29641785     0.10400
H33         H  0.09209931  0.40548741  0.26881713     0.14900
H34         H  0.11279519  0.29180284  0.24028463     0.00700
H35         H  0.02867028  0.32793972  0.32368296     0.15200
H36         H  0.13387581  0.33687823  0.01454286     0.15000
In37       In  0.22376570  0.25758121  0.32913095     1.36900
C38         C  0.25565152  0.32084505  0.00761302     0.77900
O39         O  0.27328941  0.23419435  0.01766588    -0.60500
O40         O  0.26969899  0.23550647  0.29071200    -0.51400
C41         C  0.19363956  0.19322862  0.01967267     0.70600
O42         O  0.20100203  0.21640425  0.04338436    -0.46300
C43         C  0.16255124  0.28691709  0.30528130     0.75300
O44         O  0.24102233  0.30050142  0.03559531    -0.58200
O45         O  0.18713648  0.27630164  0.28129144    -0.48300
O46         O  0.25088374  0.30952991  0.30868733    -0.54600
C47         C  0.28743782  0.22546262  0.31933033     0.85500
O48         O  0.20233853  0.20340883  0.31853465    -0.56500
O49         O  0.16927978  0.28020648  0.00634981    -0.59800
C50         C  0.33861974  0.09782131  0.18456353     0.86800
C51         C  0.34674710  0.12129676  0.14692423    -0.53400
C52         C  0.35684614  0.10074288  0.11727925     0.09700
C53         C  0.35812103  0.05906766  0.12776243     0.20700
C54         C  0.30899087  0.06942279  0.17651085    -0.54100
C55         C  0.31898631  0.04934123  0.14619617     0.09800
C56         C  0.37318097  0.07534796  0.19009353    -0.53700
C57         C  0.38388748  0.05548854  0.16036127     0.10400
H58         H  0.34393577  0.15117976  0.14384468     0.14900
H59         H  0.36665490  0.04267687  0.10346633     0.00700
H60         H  0.28172981  0.06762662  0.19122998     0.15200
H61         H  0.38892343  0.07634031  0.21493374     0.15000
C62         C  0.33380936  0.39034808  0.31847197     0.86800
C63         C  0.31300315  0.42425976  0.99817440    -0.53400
C64         C  0.28981788  0.41671001  0.03019683     0.09700
C65         C  0.28861819  0.37506959  0.04491093     0.20700
C66         C  0.35296516  0.37473325  0.01993824    -0.54100
C67         C  0.32934509  0.36723514  0.05143603     0.09800
C68         C  0.30415165  0.36233708  0.31277747    -0.53700
C69         C  0.28054955  0.35320295  0.01015219     0.10400
H70         H  0.31780661  0.45196278  0.31801979     0.14900
H71         H  0.26951224  0.36842777  0.07042109     0.00700
H72         H  0.38269072  0.37224252  0.02029918     0.15200
H73         H  0.30337240  0.34896773  0.28638009     0.15000
C74         C  0.38184175  0.36525465  0.14922818     0.86800
C75         C  0.40557482  0.33177803  0.15886928    -0.53400
C76         C  0.42821563  0.33684519  0.18714432     0.09700
C77         C  0.42532701  0.37563246  0.20282558     0.20700
C78         C  0.36126993  0.37401062  0.18695905    -0.54100
C79         C  0.38435432  0.37981714  0.21486377     0.09800
C80         C  0.40919776  0.39742646  0.13974346    -0.53700
C81         C  0.43150834  0.40353580  0.16805810     0.10400
H82         H  0.40340356  0.30578883  0.14573035     0.14900
H83         H  0.44378838  0.38010998  0.22573922     0.00700
H84         H  0.33150633  0.37633074  0.19090522     0.15200
H85         H  0.40882658  0.41563894  0.11400497     0.15000
In86       In  0.48286720  0.50440791  0.16434611     1.36900
C87         C  0.41890799  0.03576603  0.16019020     0.77900
O88         O  0.45720514  0.45942362  0.13727716    -0.60500
O89         O  0.46453069  0.45107959  0.19684825    -0.51400
C90         C  0.04421959  0.48021218  0.13377883     0.70600
O91         O  0.02183920  0.49932110  0.11466475    -0.46300
C92         C  0.01243287  0.05869088  0.19595188     0.75300
O93         O  0.44030707  0.03319031  0.13056636    -0.58200
O94         O  0.50192339  0.02855407  0.21451698    -0.48300
O95         O  0.43049362  0.02204729  0.19092440    -0.54600
C96         C  0.45242571  0.43855602  0.16747794     0.85500
O97         O  0.03674560  0.47661781  0.16921130    -0.56500
O98         O  0.00653200  0.06139641  0.16112636    -0.59800
C99         C  0.09085254  0.41164672  0.07334788     0.86800
C100        C  0.09194195  0.38476112  0.10888323    -0.53400
C101        C  0.10156887  0.40151263  0.14004209     0.09700
C102        C  0.10855487  0.44364956  0.13279103     0.20700
C103        C  0.06456694  0.44179261  0.08398173    -0.54100
C104        C  0.07304271  0.45848632  0.11528263     0.09800
C105        C  0.12874522  0.43030245  0.06828230    -0.53700
C106        C  0.13851836  0.44710564  0.09934855     0.10400
H107        H  0.08607163  0.35527606  0.10923480     0.14900
H108        H  0.11585890  0.45752329  0.15815468     0.00700
H109        H  0.03954331  0.44743872  0.06964028     0.15200
H110        H  0.14639548  0.43022659  0.04223375     0.15000
In111      In  0.23953581  0.00115089  0.08757763     1.36900
C112        C  0.17418922  0.46724649  0.09770610     0.77900
O113        O  0.21035997  0.05464891  0.09797478    -0.60500
O114        O  0.22827785  0.04386369  0.04151498    -0.51400
C115        C  0.29181940  0.02824120  0.12684916     0.70600
O116        O  0.26177915  0.01496948  0.14287839    -0.46300
C117        C  0.27219462  0.44680213  0.05108936     0.75300
O118        O  0.19318325  0.47154331  0.12576084    -0.58200
O119        O  0.26915868  0.47936939  0.03614230    -0.48300
O120        O  0.18866546  0.48049873  0.06624719    -0.54600
C121        C  0.21031821  0.06447391  0.06319852     0.85500
O122        O  0.29595079  0.02466400  0.09175398    -0.56500
O123        O  0.25982835  0.44233340  0.08540966    -0.59800
C124        C  0.07729423  0.10751424  0.25465993     0.86800
C125        C  0.05047092  0.07793281  0.24519359    -0.53400
C126        C  0.03293036  0.08718568  0.21328960     0.09700
C127        C  0.04319977  0.12637465  0.19443890     0.20700
C128        C  0.10351643  0.11532244  0.21903169    -0.54100
C129        C  0.08562275  0.12510707  0.18731651     0.09800
C130        C  0.05472483  0.14211502  0.25800726    -0.53700
C131        C  0.03652858  0.15252868  0.22683740     0.10400
H132        H  0.04744673  0.05104251  0.26095967     0.14900
H133        H  0.02852300  0.13415791  0.16870147     0.00700
H134        H  0.13322202  0.11210905  0.21866635     0.15200
H135        H  0.05327590  0.15728904  0.28337601     0.15000
In136      In  0.47846966  0.24805760  0.24054769     1.36900
C137        C  0.01296549  0.18548791  0.22840111     0.77900
O138        O  0.03667011  0.27203071  0.23317200    -0.60500
O139        O  0.00580567  0.27389777  0.28631879    -0.51400
C140        C  0.44891730  0.30596624  0.20456761     0.70600
O141        O  0.45677343  0.27671332  0.18832080    -0.46300
C142        C  0.41705775  0.21838810  0.27632764     0.75300
O143        O  0.50565515  0.20745340  0.20045927    -0.58200
O144        O  0.44351697  0.23057035  0.29327229    -0.48300
O145        O  0.00072914  0.19507515  0.26021029    -0.54600
C146        C  0.03557712  0.28201612  0.26659788     0.85500
O147        O  0.45810951  0.30603233  0.23807910    -0.56500
O148        O  0.42109838  0.22289790  0.24068131    -0.59800
C149        C  0.34294158  0.36085089  0.08866352    -0.12900
C150        C  0.35816607  0.36046726  0.11787873    -0.14500
C151        C  0.35778845  0.39547583  0.28322419    -0.12900
C152        C  0.37151525  0.39051748  0.25198646    -0.14500
C153        C  0.07765758  0.37979309  0.01104104    -0.12900
C154        C  0.08065452  0.39480085  0.03961223    -0.14500
C155        C  0.10670155  0.36594168  0.20780716    -0.12900
C156        C  0.10511620  0.38123716  0.17642508    -0.14500
C157        C  0.36281053  0.13100344  0.04713874    -0.12900
C158        C  0.36223445  0.11645033  0.07881030    -0.14500
C159        C  0.33230589  0.13608917  0.24554854    -0.12900
C160        C  0.33044319  0.11987746  0.21720142    -0.14500
C161        C  0.10469646  0.12877815  0.14991840    -0.12900
C162        C  0.11965859  0.12851819  0.11835641    -0.14500
C163        C  0.09505678  0.09811775  0.28926287    -0.12900
C164        C  0.10958248  0.09868218  0.31835349    -0.14500
C165        C  0.13194490  0.10933011  0.34797960     0.86800
C166        C  0.16275775  0.08256227  0.35514689    -0.53400
C167        C  0.18529037  0.09270674  0.38165046     0.09700
C168        C  0.17489455  0.13019876  0.39817499     0.20700
C169        C  0.11149058  0.11359820  0.38658653    -0.54100
C170        C  0.13392692  0.12458190  0.41304676     0.09800
C171        C  0.15087652  0.14628293  0.33676250    -0.53700
C172        C  0.17343027  0.15786198  0.36255428     0.10400
H173        H  0.16510952  0.05637908  0.67543631     0.14900
H174        H  0.19334387  0.13890066  0.41960018     0.00700
H175        H  0.08211921  0.10815123  0.39255214     0.15200
H176        H  0.14669237  0.16219735  0.64354314     0.15000
C177        C  0.35767125  0.15293719  0.34492916     0.86800
C178        C  0.34698558  0.13055418  0.64558462    -0.53400
C179        C  0.34085084  0.15205481  0.61339728     0.09700
C180        C  0.34621746  0.19390790  0.61676295     0.20700
C181        C  0.39122636  0.17623059  0.66272663    -0.54100
C182        C  0.38575739  0.19756512  0.63029554     0.09800
C183        C  0.32696194  0.18047258  0.35024766    -0.53700
C184        C  0.32020377  0.20181694  0.65161398     0.10400
H185        H  0.34475252  0.10054067  0.64760669     0.14900
H186        H  0.34136804  0.21129853  0.59051550     0.00700
H187        H  0.41749322  0.17496347  0.34219039     0.15200
H188        H  0.31061093  0.18166025  0.37700698     0.15000
C189        C  0.08588719  0.35598464  0.64722824     0.86800
C190        C  0.09499000  0.37584168  0.60811075    -0.53400
C191        C  0.10451276  0.35241215  0.58076406     0.09700
C192        C  0.10486817  0.31099640  0.59566857     0.20700
C193        C  0.05582819  0.32770198  0.64206725    -0.54100
C194        C  0.06495049  0.30448650  0.61435954     0.09800
C195        C  0.11938195  0.33371100  0.65580871    -0.52900
C196        C  0.13006732  0.30976957  0.62975139     0.10400
H197        H  0.09209907  0.40548841  0.60215008     0.14900
H198        H  0.11279568  0.29180294  0.57361815     0.00700
H199        H  0.02866996  0.32794005  0.65701601     0.15200
H200        H  0.13387568  0.33687794  0.34787651     0.15000
In201      In  0.22376572  0.25758116  0.66246435     1.36900
C202        C  0.25565139  0.32084512  0.34094643     0.77900
O203        O  0.27328946  0.23419426  0.35099922    -0.60500
O204        O  0.26969910  0.23550641  0.62404541    -0.51400
C205        C  0.19363959  0.19322862  0.35300594     0.70600
O206        O  0.20100204  0.21640433  0.37671755    -0.46300
C207        C  0.16255115  0.28691695  0.63861474     0.75300
O208        O  0.24102236  0.30050131  0.36892876    -0.58200
O209        O  0.18713646  0.27630165  0.61462488    -0.48300
O210        O  0.25088371  0.30952996  0.64202068    -0.54600
C211        C  0.28743793  0.22546268  0.65266374     0.85500
O212        O  0.20233843  0.20340870  0.65186798    -0.56500
O213        O  0.16927975  0.28020642  0.33968302    -0.59800
C214        C  0.33861959  0.09782147  0.51789697     0.86800
C215        C  0.34674704  0.12129691  0.48025766    -0.53400
C216        C  0.35684611  0.10074315  0.45061272     0.09700
C217        C  0.35812094  0.05906789  0.46109583     0.20700
C218        C  0.30899076  0.06942291  0.50984426    -0.54100
C219        C  0.31898616  0.04934141  0.47952962     0.09800
C220        C  0.37318090  0.07534813  0.52342693    -0.53700
C221        C  0.38388735  0.05548874  0.49369468     0.10400
H222        H  0.34393562  0.15118075  0.47717797     0.14900
H223        H  0.36665498  0.04267745  0.43679987     0.00700
H224        H  0.28172887  0.06762695  0.52456351     0.15200
H225        H  0.38892318  0.07634007  0.54826731     0.15000
C226        C  0.33380931  0.39034805  0.65180527     0.86800
C227        C  0.31300326  0.42425961  0.33150775    -0.53400
C228        C  0.28981793  0.41671006  0.36353008     0.09700
C229        C  0.28861828  0.37506970  0.37824428     0.20700
C230        C  0.35296522  0.37473324  0.35327155    -0.54100
C231        C  0.32934529  0.36723517  0.38476929     0.09800
C232        C  0.30415153  0.36233707  0.64611077    -0.53700
C233        C  0.28054953  0.35320308  0.34348564     0.10400
H234        H  0.31780659  0.45196269  0.65135327     0.14900
H235        H  0.26951238  0.36842820  0.40375438     0.00700
H236        H  0.38269183  0.37224225  0.35363234     0.15200
H237        H  0.30337216  0.34896779  0.61971350     0.15000
C238        C  0.38184170  0.36525469  0.48256135     0.86800
C239        C  0.40557474  0.33177807  0.49220244    -0.53400
C240        C  0.42821561  0.33684517  0.52047739     0.09700
C241        C  0.42532705  0.37563255  0.53615871     0.20700
C242        C  0.36126985  0.37401071  0.52029234    -0.54100
C243        C  0.38435430  0.37981733  0.54819698     0.09800
C244        C  0.40919768  0.39742660  0.47307656    -0.53700
C245        C  0.43150830  0.40353591  0.50139114     0.10400
H246        H  0.40340330  0.30578841  0.47906312     0.14900
H247        H  0.44378837  0.38011003  0.55907181     0.00700
H248        H  0.33150651  0.37633120  0.52423831     0.15200
H249        H  0.40882670  0.41563893  0.44733759     0.15000
In250      In  0.48286721  0.50440801  0.49767942     1.36900
C251        C  0.41890788  0.03576597  0.49352359     0.77900
O252        O  0.45720513  0.45942381  0.47061045    -0.60500
O253        O  0.46453070  0.45107974  0.53018141    -0.51400
C254        C  0.04421957  0.48021216  0.46711211     0.70600
O255        O  0.02183917  0.49932113  0.44799808    -0.46300
C256        C  0.01243294  0.05869097  0.52928515     0.75300
O257        O  0.44030705  0.03319037  0.46389977    -0.58200
O258        O  0.50192338  0.02855418  0.54785037    -0.48300
O259        O  0.43049360  0.02204731  0.52425782    -0.54600
C260        C  0.45242566  0.43855618  0.50081116     0.85500
O261        O  0.03674555  0.47661774  0.50254459    -0.56500
O262        O  0.00653192  0.06139649  0.49445975    -0.59800
C263        C  0.09085277  0.41164676  0.40668111     0.86800
C264        C  0.09194223  0.38476122  0.44221656    -0.53400
C265        C  0.10156908  0.40151269  0.47337547     0.09700
C266        C  0.10855493  0.44364955  0.46612424     0.20700
C267        C  0.06456705  0.44179240  0.41731501    -0.54100
C268        C  0.07304272  0.45848628  0.44861586     0.09800
C269        C  0.12874531  0.43030262  0.40161561    -0.53700
C270        C  0.13851847  0.44710563  0.43268186     0.10400
H271        H  0.08607200  0.35527624  0.44256815     0.14900
H272        H  0.11585925  0.45752376  0.49148812     0.00700
H273        H  0.03954314  0.44743834  0.40297329     0.15200
H274        H  0.14639600  0.43022695  0.37556666     0.15000
In275      In  0.23953578  0.00115087  0.42091100     1.36900
C276        C  0.17418930  0.46724655  0.43103940     0.77900
O277        O  0.21035995  0.05464888  0.43130815    -0.60500
O278        O  0.22827790  0.04386357  0.37484837    -0.51400
C279        C  0.29181948  0.02824114  0.46018256     0.70600
O280        O  0.26177924  0.01496948  0.47621176    -0.46300
C281        C  0.27219466  0.44680220  0.38442257     0.75300
O282        O  0.19318333  0.47154313  0.45909415    -0.58200
O283        O  0.26915865  0.47936951  0.36947549    -0.48300
O284        O  0.18866569  0.48049880  0.39958056    -0.54600
C285        C  0.21031815  0.06447378  0.39653187     0.85500
O286        O  0.29595079  0.02466385  0.42508743    -0.56500
O287        O  0.25982845  0.44233333  0.41874289    -0.59800
C288        C  0.07729413  0.10751413  0.58799332     0.86800
C289        C  0.05047088  0.07793279  0.57852691    -0.53400
C290        C  0.03293044  0.08718563  0.54662294     0.09700
C291        C  0.04319982  0.12637472  0.52777229     0.20700
C292        C  0.10351632  0.11532235  0.55236499    -0.54100
C293        C  0.08562267  0.12510692  0.52064977     0.09800
C294        C  0.05472478  0.14211504  0.59134048    -0.53700
C295        C  0.03652860  0.15252879  0.56017068     0.10400
H296        H  0.04744621  0.05104130  0.59429379     0.14900
H297        H  0.02852260  0.13415828  0.50203433     0.00700
H298        H  0.13322210  0.11210884  0.55199956     0.15200
H299        H  0.05327607  0.15728966  0.61670954     0.15000
In300      In  0.47846973  0.24805774  0.57388105     1.36900
C301        C  0.01296548  0.18548795  0.56173447     0.77900
O302        O  0.03667016  0.27203061  0.56650525    -0.60500
O303        O  0.00580558  0.27389797  0.61965213    -0.51400
C304        C  0.44891725  0.30596633  0.53790102     0.70600
O305        O  0.45677350  0.27671342  0.52165424    -0.46300
C306        C  0.41705794  0.21838824  0.60966091     0.75300
O307        O  0.50565532  0.20745348  0.53379266    -0.58200
O308        O  0.44351720  0.23057030  0.62660561    -0.48300
O309        O  0.00072909  0.19507518  0.59354364    -0.54600
C310        C  0.03557711  0.28201612  0.59993116     0.85500
O311        O  0.45810952  0.30603252  0.57141249    -0.56500
O312        O  0.42109853  0.22289818  0.57401458    -0.59800
C313        C  0.34294156  0.36085094  0.42199676    -0.12900
C314        C  0.35816598  0.36046724  0.45121199    -0.14500
C315        C  0.35778851  0.39547579  0.61655753    -0.12900
C316        C  0.37151520  0.39051745  0.58531978    -0.14500
C317        C  0.07765759  0.37979301  0.34437438    -0.12900
C318        C  0.08065464  0.39480084  0.37294552    -0.14500
C319        C  0.10670171  0.36594170  0.54114047    -0.12900
C320        C  0.10511631  0.38123707  0.50975839    -0.14500
C321        C  0.36281048  0.13100342  0.38047205    -0.12900
C322        C  0.36223442  0.11645038  0.41214364    -0.14500
C323        C  0.33230590  0.13608925  0.57888188    -0.12900
C324        C  0.33044313  0.11987748  0.55053482    -0.14500
C325        C  0.10469645  0.12877811  0.48325171    -0.12900
C326        C  0.11965854  0.12851814  0.45168969    -0.14500
C327        C  0.09505682  0.09811769  0.62259623    -0.12900
C328        C  0.10958243  0.09868216  0.65168691    -0.14500
C329        C  0.13194490  0.10933008  0.68131310     0.86800
C330        C  0.16275770  0.08256219  0.68848029    -0.53400
C331        C  0.18529036  0.09270674  0.71498391     0.09700
C332        C  0.17489458  0.13019875  0.73150841     0.20700
C333        C  0.11149067  0.11359826  0.71992011    -0.54100
C334        C  0.13392707  0.12458201  0.74638026     0.09800
C335        C  0.15087653  0.14628291  0.67009589    -0.53700
C336        C  0.17343033  0.15786196  0.69588779     0.10400
H337        H  0.16510929  0.05637927  0.00877018     0.14900
H338        H  0.19334442  0.13890058  0.75293417     0.00700
H339        H  0.08211935  0.10815168  0.72588592     0.15200
H340        H  0.14669265  0.16219758  0.97687583     0.15000
C341        C  0.35767160  0.15293723  0.67826249     0.86800
C342        C  0.34698539  0.13055427  0.97891798    -0.53400
C343        C  0.34085072  0.15205485  0.94673064     0.09700
C344        C  0.34621729  0.19390789  0.95009641     0.20700
C345        C  0.39122612  0.17623067  0.99606000    -0.54100
C346        C  0.38575716  0.19756508  0.96362888     0.09800
C347        C  0.32696220  0.18047266  0.68358094    -0.53700
C348        C  0.32020358  0.20181696  0.98494755     0.10400
H349        H  0.34475243  0.10054080  0.98094002     0.14900
H350        H  0.34136786  0.21129872  0.92384926     0.00700
H351        H  0.41749429  0.17496388  0.67552412     0.15200
H352        H  0.31061138  0.18166019  0.71034005     0.15000
C353        C  0.08588696  0.35598454  0.98056142     0.86800
C354        C  0.09498998  0.37584162  0.94144402    -0.53400
C355        C  0.10451277  0.35241194  0.91409728     0.09700
C356        C  0.10486802  0.31099627  0.92900171     0.20700
C357        C  0.05582807  0.32770196  0.97540045    -0.54100
C358        C  0.06495036  0.30448645  0.94769274     0.09800
C359        C  0.11938183  0.33371095  0.98914187    -0.52900
C360        C  0.13006725  0.30976948  0.96308435     0.10400
H361        H  0.09209916  0.40548750  0.93548345     0.14900
H362        H  0.11279524  0.29180261  0.90695070     0.00700
H363        H  0.02866979  0.32793958  0.99034984     0.15200
H364        H  0.13387657  0.33687827  0.68121105     0.15000
In365      In  0.22376567  0.25758122  0.99579770     1.36900
C366        C  0.25565144  0.32084510  0.67427979     0.77900
O367        O  0.27328939  0.23419420  0.68433264    -0.60500
O368        O  0.26969896  0.23550645  0.95737872    -0.51400
C369        C  0.19363947  0.19322856  0.68633927     0.70600
O370        O  0.20100206  0.21640421  0.71005089    -0.46300
C371        C  0.16255110  0.28691702  0.97194811     0.75300
O372        O  0.24102247  0.30050124  0.70226211    -0.58200
O373        O  0.18713635  0.27630169  0.94795829    -0.48300
O374        O  0.25088380  0.30952980  0.97535399    -0.54600
C375        C  0.28743781  0.22546269  0.98599701     0.85500
O376        O  0.20233845  0.20340886  0.98520134    -0.56500
O377        O  0.16927979  0.28020644  0.67301647    -0.59800
C378        C  0.33861976  0.09782144  0.85123041     0.86800
C379        C  0.34674710  0.12129688  0.81359095    -0.53400
C380        C  0.35684620  0.10074317  0.78394601     0.09700
C381        C  0.35812109  0.05906792  0.79442915     0.20700
C382        C  0.30899090  0.06942279  0.84317762    -0.54100
C383        C  0.31898632  0.04934135  0.81286288     0.09800
C384        C  0.37318093  0.07534814  0.85676035    -0.53700
C385        C  0.38388740  0.05548871  0.82702827     0.10400
H386        H  0.34393567  0.15118069  0.81051127     0.14900
H387        H  0.36665525  0.04267760  0.77013318     0.00700
H388        H  0.28172926  0.06762705  0.85789634     0.15200
H389        H  0.38892396  0.07634015  0.88160187     0.15000
C390        C  0.33380917  0.39034809  0.98513855     0.86800
C391        C  0.31300335  0.42425967  0.66484111    -0.53400
C392        C  0.28981796  0.41671006  0.69686348     0.09700
C393        C  0.28861821  0.37506969  0.71157761     0.20700
C394        C  0.35296514  0.37473324  0.68660485    -0.54100
C395        C  0.32934518  0.36723519  0.71810264     0.09800
C396        C  0.30415159  0.36233700  0.97944405    -0.53700
C397        C  0.28054948  0.35320306  0.67681904     0.10400
H398        H  0.31780617  0.45196278  0.98468666     0.14900
H399        H  0.26951220  0.36842787  0.73708788     0.00700
H400        H  0.38269161  0.37224229  0.68696567     0.15200
H401        H  0.30337227  0.34896736  0.95304608     0.15000
C402        C  0.38184174  0.36525472  0.81589464     0.86800
C403        C  0.40557476  0.33177806  0.82553581    -0.53400
C404        C  0.42821563  0.33684518  0.85381077     0.09700
C405        C  0.42532705  0.37563253  0.86949204     0.20700
C406        C  0.36126989  0.37401071  0.85362563    -0.54100
C407        C  0.38435427  0.37981720  0.88153034     0.09800
C408        C  0.40919770  0.39742652  0.80640985    -0.53700
C409        C  0.43150834  0.40353586  0.83472436     0.10400
H410        H  0.40340359  0.30578857  0.81239635     0.14900
H411        H  0.44378837  0.38011006  0.89240509     0.00700
H412        H  0.33150637  0.37633074  0.85757184     0.15200
H413        H  0.40882651  0.41563924  0.78067054     0.15000
In414      In  0.48286716  0.50440791  0.83101281     1.36900
C415        C  0.41890791  0.03576608  0.82685694     0.77900
O416        O  0.45720509  0.45942379  0.80394374    -0.60500
O417        O  0.46453070  0.45107965  0.86351484    -0.51400
C418        C  0.04421969  0.48021220  0.80044546     0.70600
O419        O  0.02183927  0.49932119  0.78133148    -0.46300
C420        C  0.01243307  0.05869088  0.86261856     0.75300
O421        O  0.44030705  0.03319040  0.79723313    -0.58200
O422        O  0.50192337  0.02855409  0.88118380    -0.48300
O423        O  0.43049359  0.02204736  0.85759112    -0.54600
C424        C  0.45242570  0.43855613  0.83414449     0.85500
O425        O  0.03674561  0.47661759  0.83587791    -0.56500
O426        O  0.00653203  0.06139638  0.82779312    -0.59800
C427        C  0.09085265  0.41164669  0.74001446     0.86800
C428        C  0.09194213  0.38476119  0.77554993    -0.53400
C429        C  0.10156903  0.40151265  0.80670875     0.09700
C430        C  0.10855498  0.44364953  0.79945760     0.20700
C431        C  0.06456705  0.44179244  0.75064833    -0.54100
C432        C  0.07304273  0.45848622  0.78194916     0.09800
C433        C  0.12874530  0.43030247  0.73494895    -0.53700
C434        C  0.13851846  0.44710557  0.76601512     0.10400
H435        H  0.08607193  0.35527604  0.77590155     0.14900
H436        H  0.11585921  0.45752328  0.82482077     0.00700
H437        H  0.03954315  0.44743847  0.73630670     0.15200
H438        H  0.14639552  0.43022682  0.70890037     0.15000
In439      In  0.23953583  0.00115085  0.75424425     1.36900
C440        C  0.17418933  0.46724652  0.76437256     0.77900
O441        O  0.21036000  0.05464880  0.76464149    -0.60500
O442        O  0.22827789  0.04386363  0.70818170    -0.51400
C443        C  0.29181947  0.02824114  0.79351576     0.70600
O444        O  0.26177915  0.01496947  0.80954484    -0.46300
C445        C  0.27219474  0.44680223  0.71775595     0.75300
O446        O  0.19318325  0.47154335  0.79242732    -0.58200
O447        O  0.26915884  0.47936948  0.70280886    -0.48300
O448        O  0.18866570  0.48049880  0.73291369    -0.54600
C449        C  0.21031823  0.06447384  0.72986523     0.85500
O450        O  0.29595088  0.02466379  0.75842066    -0.56500
O451        O  0.25982828  0.44233347  0.75207619    -0.59800
C452        C  0.07729423  0.10751431  0.92132663     0.86800
C453        C  0.05047089  0.07793292  0.91186028    -0.53400
C454        C  0.03293024  0.08718580  0.87995632     0.09700
C455        C  0.04319975  0.12637471  0.86110562     0.20700
C456        C  0.10351634  0.11532248  0.88569825    -0.54100
C457        C  0.08562264  0.12510701  0.85398306     0.09800
C458        C  0.05472491  0.14211513  0.92467388    -0.53700
C459        C  0.03652857  0.15252880  0.89350408     0.10400
H460        H  0.04744622  0.05104236  0.92762691     0.14900
H461        H  0.02852248  0.13415816  0.83536753     0.00700
H462        H  0.13322209  0.11210870  0.88533260     0.15200
H463        H  0.05327590  0.15728945  0.95004325     0.15000
In464      In  0.47846968  0.24805769  0.90721442     1.36900
C465        C  0.01296548  0.18548798  0.89506789     0.77900
O466        O  0.03666999  0.27203070  0.89983854    -0.60500
O467        O  0.00580566  0.27389784  0.95298546    -0.51400
C468        C  0.44891722  0.30596626  0.87123443     0.70600
O469        O  0.45677343  0.27671335  0.85498764    -0.46300
C470        C  0.41705781  0.21838817  0.94299428     0.75300
O471        O  0.50565517  0.20745350  0.86712601    -0.58200
O472        O  0.44351702  0.23057040  0.95993891    -0.48300
O473        O  0.00072911  0.19507515  0.92687710    -0.54600
C474        C  0.03557703  0.28201621  0.93326440     0.85500
O475        O  0.45810947  0.30603242  0.90474592    -0.56500
O476        O  0.42109849  0.22289810  0.90734801    -0.59800
C477        C  0.34294160  0.36085089  0.75533012    -0.12900
C478        C  0.35816603  0.36046730  0.78454536    -0.14500
C479        C  0.35778852  0.39547583  0.94989092    -0.12900
C480        C  0.37151525  0.39051757  0.91865314    -0.14500
C481        C  0.07765762  0.37979299  0.67770773    -0.12900
C482        C  0.08065453  0.39480085  0.70627885    -0.14500
C483        C  0.10670173  0.36594173  0.87447376    -0.12900
C484        C  0.10511639  0.38123723  0.84309173    -0.14500
C485        C  0.36281066  0.13100348  0.71380536    -0.12900
C486        C  0.36223452  0.11645048  0.74547696    -0.14500
C487        C  0.33230588  0.13608928  0.91221524    -0.12900
C488        C  0.33044309  0.11987738  0.88386828    -0.14500
C489        C  0.10469643  0.12877803  0.81658503    -0.12900
C490        C  0.11965854  0.12851809  0.78502305    -0.14500
C491        C  0.09505684  0.09811775  0.95592963    -0.12900
C492        C  0.10958242  0.09868222  0.98502034    -0.14500
C493        C  0.13194481  0.60933017  0.01464651     0.86800
C494        C  0.16275772  0.58256232  0.02181368    -0.53400
C495        C  0.18529034  0.59270681  0.04831734     0.09700
C496        C  0.17489460  0.63019877  0.06484175     0.20700
C497        C  0.11149054  0.61359835  0.05325344    -0.54100
C498        C  0.13392702  0.62458198  0.07971361     0.09800
C499        C  0.15087641  0.64628287  0.00342936    -0.53700
C500        C  0.17343026  0.65786199  0.02922111     0.10400
H501        H  0.16510961  0.55637809  0.34210263     0.14900
H502        H  0.19334463  0.63890080  0.08626737     0.00700
H503        H  0.08211914  0.60815129  0.05921941     0.15200
H504        H  0.14669224  0.66219735  0.31020965     0.15000
C505        C  0.35767122  0.65293724  0.01159597     0.86800
C506        C  0.34698548  0.63055428  0.31225116    -0.53400
C507        C  0.34085084  0.65205506  0.28006383     0.09700
C508        C  0.34621748  0.69390796  0.28342967     0.20700
C509        C  0.39122632  0.67623062  0.32939339    -0.54100
C510        C  0.38575739  0.69756507  0.29696221     0.09800
C511        C  0.32696189  0.68047264  0.01691438    -0.53700
C512        C  0.32020374  0.70181694  0.31828071     0.10400
H513        H  0.34475261  0.60054170  0.31427288     0.14900
H514        H  0.34136799  0.71129880  0.25718210     0.00700
H515        H  0.41749368  0.67496345  0.00885711     0.15200
H516        H  0.31061039  0.68166043  0.04367465     0.15000
C517        C  0.08588701  0.85598461  0.31389485     0.86800
C518        C  0.09498990  0.87584164  0.27477745    -0.53400
C519        C  0.10451275  0.85241214  0.24743077     0.09700
C520        C  0.10486801  0.81099636  0.26233522     0.20700
C521        C  0.05582801  0.82770203  0.30873392    -0.54100
C522        C  0.06495031  0.80448655  0.28102630     0.09800
C523        C  0.11938194  0.83371099  0.32247529    -0.52900
C524        C  0.13006721  0.80976945  0.29641793     0.10400
H525        H  0.09209923  0.90548841  0.26881688     0.14900
H526        H  0.11279518  0.79180299  0.24028475     0.00700
H527        H  0.02866947  0.82793982  0.32368328     0.15200
H528        H  0.13387568  0.83687813  0.01454292     0.15000
In529      In  0.22376574  0.75758117  0.32913095     1.36900
C530        C  0.25565146  0.82084506  0.00761303     0.77900
O531        O  0.27328937  0.73419430  0.01766588    -0.60500
O532        O  0.26969913  0.73550642  0.29071199    -0.51400
C533        C  0.19363953  0.69322860  0.01967267     0.70600
O534        O  0.20100203  0.71640425  0.04338435    -0.46300
C535        C  0.16255113  0.78691692  0.30528130     0.75300
O536        O  0.24102239  0.80050138  0.03559532    -0.58200
O537        O  0.18713648  0.77630167  0.28129145    -0.48300
O538        O  0.25088372  0.80952996  0.30868733    -0.54600
C539        C  0.28743795  0.72546272  0.31933034     0.85500
O540        O  0.20233849  0.70340875  0.31853465    -0.56500
O541        O  0.16927969  0.78020637  0.00634982    -0.59800
C542        C  0.33861963  0.59782149  0.18456356     0.86800
C543        C  0.34674708  0.62129693  0.14692427    -0.53400
C544        C  0.35684615  0.60074315  0.11727936     0.09700
C545        C  0.35812098  0.55906788  0.12776248     0.20700
C546        C  0.30899079  0.56942289  0.17651086    -0.54100
C547        C  0.31898617  0.54934141  0.14619621     0.09800
C548        C  0.37318094  0.57534814  0.19009357    -0.53700
C549        C  0.38388740  0.55548872  0.16036133     0.10400
H550        H  0.34393565  0.65118079  0.14384460     0.14900
H551        H  0.36665504  0.54267745  0.10346645     0.00700
H552        H  0.28172897  0.56762693  0.19123009     0.15200
H553        H  0.38892315  0.57634007  0.21493388     0.15000
C554        C  0.33380931  0.89034810  0.31847193     0.86800
C555        C  0.31300311  0.92425964  0.99817439    -0.53400
C556        C  0.28981790  0.91671003  0.03019687     0.09700
C557        C  0.28861814  0.87506962  0.04491094     0.20700
C558        C  0.35296514  0.87473325  0.01993822    -0.54100
C559        C  0.32934505  0.86723520  0.05143601     0.09800
C560        C  0.30415156  0.86233707  0.31277743    -0.53700
C561        C  0.28054952  0.85320297  0.01015218     0.10400
H562        H  0.31780672  0.95196299  0.31801938     0.14900
H563        H  0.26951215  0.86842804  0.07042105     0.00700
H564        H  0.38269067  0.87224237  0.02029914     0.15200
H565        H  0.30337218  0.84896775  0.28638004     0.15000
C566        C  0.38184173  0.86525475  0.14922817     0.86800
C567        C  0.40557478  0.83177805  0.15886931    -0.53400
C568        C  0.42821562  0.83684526  0.18714435     0.09700
C569        C  0.42532699  0.87563258  0.20282554     0.20700
C570        C  0.36126990  0.87401067  0.18695908    -0.54100
C571        C  0.38435430  0.87981728  0.21486375     0.09800
C572        C  0.40919777  0.89742662  0.13974341    -0.53700
C573        C  0.43150832  0.90353593  0.16805809     0.10400
H574        H  0.40340359  0.80578893  0.14573044     0.14900
H575        H  0.44378838  0.88011033  0.22573926     0.00700
H576        H  0.33150623  0.87633116  0.19090522     0.15200
H577        H  0.40882671  0.91563905  0.11400481     0.15000
In578      In  0.48286720  0.00440796  0.16434606     1.36900
C579        C  0.41890792  0.53576595  0.16019028     0.77900
O580        O  0.45720508  0.95942368  0.13727712    -0.60500
O581        O  0.46453076  0.95107968  0.19684820    -0.51400
C582        C  0.04421953  0.98021215  0.13377874     0.70600
O583        O  0.02183917  0.99932110  0.11466462    -0.46300
C584        C  0.01243293  0.55869087  0.19595187     0.75300
O585        O  0.44030709  0.53319024  0.13056652    -0.58200
O586        O  0.50192345  0.52855402  0.21451707    -0.48300
O587        O  0.43049367  0.52204727  0.19092443    -0.54600
C588        C  0.45242569  0.93855612  0.16747792     0.85500
O589        O  0.03674556  0.97661778  0.16921127    -0.56500
O590        O  0.00653187  0.56139639  0.16112642    -0.59800
C591        C  0.09085263  0.91164672  0.07334792     0.86800
C592        C  0.09194208  0.88476121  0.10888328    -0.53400
C593        C  0.10156892  0.90151272  0.14004218     0.09700
C594        C  0.10855482  0.94364961  0.13279104     0.20700
C595        C  0.06456699  0.94179251  0.08398164    -0.54100
C596        C  0.07304272  0.95848635  0.11528257     0.09800
C597        C  0.12874522  0.93030246  0.06828241    -0.53700
C598        C  0.13851833  0.94710561  0.09934871     0.10400
H599        H  0.08607175  0.85527625  0.10923487     0.14900
H600        H  0.11585888  0.95752373  0.15815485     0.00700
H601        H  0.03954341  0.94743821  0.06964032     0.15200
H602        H  0.14639555  0.93022666  0.04223419     0.15000
In603      In  0.23953577  0.50115087  0.08757765     1.36900
C604        C  0.17418917  0.96724657  0.09770614     0.77900
O605        O  0.21036000  0.55464887  0.09797478    -0.60500
O606        O  0.22827789  0.54386363  0.04151496    -0.51400
C607        C  0.29181945  0.52824120  0.12684917     0.70600
O608        O  0.26177921  0.51496946  0.14287841    -0.46300
C609        C  0.27219462  0.94680221  0.05108937     0.75300
O610        O  0.19318330  0.97154330  0.12576082    -0.58200
O611        O  0.26915861  0.97936949  0.03614224    -0.48300
O612        O  0.18866551  0.98049872  0.06624724    -0.54600
C613        C  0.21031815  0.56447380  0.06319852     0.85500
O614        O  0.29595082  0.52466396  0.09175402    -0.56500
O615        O  0.25982836  0.94233339  0.08540969    -0.59800
C616        C  0.07729421  0.60751418  0.25466003     0.86800
C617        C  0.05047090  0.57793280  0.24519369    -0.53400
C618        C  0.03293037  0.58718567  0.21328974     0.09700
C619        C  0.04319980  0.62637473  0.19443900     0.20700
C620        C  0.10351646  0.61532236  0.21903170    -0.54100
C621        C  0.08562275  0.62510689  0.18731653     0.09800
C622        C  0.05472479  0.64211503  0.25800726    -0.53700
C623        C  0.03652859  0.65252876  0.22683750     0.10400
H624        H  0.04744668  0.55104175  0.26095999     0.14900
H625        H  0.02852301  0.63415806  0.16870158     0.00700
H626        H  0.13322204  0.61210883  0.21866628     0.15200
H627        H  0.05327640  0.65728975  0.28337620     0.15000
In628      In  0.47846964  0.74805772  0.24054768     1.36900
C629        C  0.01296551  0.68548796  0.22840112     0.77900
O630        O  0.03667013  0.77203072  0.23317201    -0.60500
O631        O  0.00580555  0.77389793  0.28631871    -0.51400
C632        C  0.44891731  0.80596636  0.20456764     0.70600
O633        O  0.45677344  0.77671345  0.18832082    -0.46300
C634        C  0.41705789  0.71838817  0.27632763     0.75300
O635        O  0.50565523  0.70745347  0.20045927    -0.58200
O636        O  0.44351715  0.73057030  0.29327229    -0.48300
O637        O  0.00072910  0.69507523  0.26021026    -0.54600
C638        C  0.03557711  0.78201609  0.26659791     0.85500
O639        O  0.45810950  0.80603249  0.23807913    -0.56500
O640        O  0.42109838  0.72289813  0.24068131    -0.59800
C641        C  0.34294153  0.86085095  0.08866351    -0.12900
C642        C  0.35816602  0.86046722  0.11787873    -0.14500
C643        C  0.35778843  0.89547579  0.28322421    -0.12900
C644        C  0.37151522  0.89051746  0.25198649    -0.14500
C645        C  0.07765762  0.87979313  0.01104106    -0.12900
C646        C  0.08065465  0.89480084  0.03961226    -0.14500
C647        C  0.10670152  0.86594173  0.20780718    -0.12900
C648        C  0.10511619  0.88123712  0.17642509    -0.14500
C649        C  0.36281051  0.63100343  0.04713874    -0.12900
C650        C  0.36223445  0.61645037  0.07881032    -0.14500
C651        C  0.33230594  0.63608929  0.24554854    -0.12900
C652        C  0.33044320  0.61987748  0.21720148    -0.14500
C653        C  0.10469645  0.62877812  0.14991840    -0.12900
C654        C  0.11965856  0.62851818  0.11835640    -0.14500
C655        C  0.09505683  0.59811769  0.28926289    -0.12900
C656        C  0.10958248  0.59868210  0.31835354    -0.14500
C657        C  0.13194496  0.60932987  0.34797966     0.86800
C658        C  0.16275780  0.58256211  0.35514687    -0.53400
C659        C  0.18529037  0.59270656  0.38165039     0.09700
C660        C  0.17489457  0.63019864  0.39817493     0.20700
C661        C  0.11149069  0.61359812  0.38658662    -0.54100
C662        C  0.13392701  0.62458185  0.41304682     0.09800
C663        C  0.15087647  0.64628280  0.33676255    -0.53700
C664        C  0.17343025  0.65786189  0.36255434     0.10400
H665        H  0.16510939  0.55637911  0.67543624     0.14900
H666        H  0.19334424  0.63890039  0.41960019     0.00700
H667        H  0.08211940  0.60815119  0.39255228     0.15200
H668        H  0.14669249  0.66219740  0.64354323     0.15000
C669        C  0.35767152  0.65293732  0.34492919     0.86800
C670        C  0.34698554  0.63055420  0.64558465    -0.53400
C671        C  0.34085081  0.65205479  0.61339727     0.09700
C672        C  0.34621742  0.69390788  0.61676289     0.20700
C673        C  0.39122630  0.67623060  0.66272664    -0.54100
C674        C  0.38575734  0.69756502  0.63029552     0.09800
C675        C  0.32696218  0.68047269  0.35024767    -0.53700
C676        C  0.32020374  0.70181697  0.65161388     0.10400
H677        H  0.34475250  0.60054070  0.64760676     0.14900
H678        H  0.34136800  0.71129850  0.59051547     0.00700
H679        H  0.41749421  0.67496339  0.34219055     0.15200
H680        H  0.31061097  0.68166017  0.37700699     0.15000
C681        C  0.08588715  0.85598449  0.64722833     0.86800
C682        C  0.09499004  0.87584164  0.60811087    -0.53400
C683        C  0.10451284  0.85241202  0.58076410     0.09700
C684        C  0.10486811  0.81099634  0.59566850     0.20700
C685        C  0.05582812  0.82770193  0.64206723    -0.54100
C686        C  0.06495046  0.80448649  0.61435952     0.09800
C687        C  0.11938192  0.83371096  0.65580875    -0.52900
C688        C  0.13006735  0.80976961  0.62975134     0.10400
H689        H  0.09209920  0.90548734  0.60215047     0.14900
H690        H  0.11279522  0.79180292  0.57361799     0.00700
H691        H  0.02867001  0.82793972  0.65701609     0.15200
H692        H  0.13387582  0.83687775  0.34787723     0.15000
In693      In  0.22376573  0.75758124  0.66246429     1.36900
C694        C  0.25565145  0.82084508  0.34094644     0.77900
O695        O  0.27328940  0.73419424  0.35099922    -0.60500
O696        O  0.26969901  0.73550643  0.62404529    -0.51400
C697        C  0.19363960  0.69322849  0.35300592     0.70600
O698        O  0.20100199  0.71640424  0.37671751    -0.46300
C699        C  0.16255118  0.78691708  0.63861470     0.75300
O700        O  0.24102248  0.80050122  0.36892876    -0.58200
O701        O  0.18713637  0.77630171  0.61462483    -0.48300
O702        O  0.25088382  0.80952994  0.64202061    -0.54600
C703        C  0.28743789  0.72546268  0.65266356     0.85500
O704        O  0.20233851  0.70340884  0.65186801    -0.56500
O705        O  0.16927980  0.78020647  0.33968301    -0.59800
C706        C  0.33861967  0.59782143  0.51789702     0.86800
C707        C  0.34674707  0.62129688  0.48025765    -0.53400
C708        C  0.35684619  0.60074314  0.45061271     0.09700
C709        C  0.35812102  0.55906790  0.46109584     0.20700
C710        C  0.30899085  0.56942288  0.50984431    -0.54100
C711        C  0.31898625  0.54934137  0.47952967     0.09800
C712        C  0.37318092  0.57534810  0.52342692    -0.53700
C713        C  0.38388737  0.55548871  0.49369475     0.10400
H714        H  0.34393567  0.65118068  0.47717798     0.14900
H715        H  0.36665515  0.54267749  0.43679989     0.00700
H716        H  0.28172887  0.56762692  0.52456359     0.15200
H717        H  0.38892367  0.57634022  0.54826763     0.15000
C718        C  0.33380934  0.89034811  0.65180524     0.86800
C719        C  0.31300340  0.92425970  0.33150770    -0.53400
C720        C  0.28981803  0.91671016  0.36353006     0.09700
C721        C  0.28861826  0.87506969  0.37824425     0.20700
C722        C  0.35296517  0.87473323  0.35327151    -0.54100
C723        C  0.32934522  0.86723520  0.38476928     0.09800
C724        C  0.30415166  0.86233706  0.64611069    -0.53700
C725        C  0.28054951  0.85320305  0.34348565     0.10400
H726        H  0.31780654  0.95196280  0.65135323     0.14900
H727        H  0.26951235  0.86842790  0.40375450     0.00700
H728        H  0.38269163  0.87224224  0.35363228     0.15200
H729        H  0.30337241  0.84896763  0.61971354     0.15000
C730        C  0.38184181  0.86525470  0.48256123     0.86800
C731        C  0.40557480  0.83177805  0.49220240    -0.53400
C732        C  0.42821567  0.83684517  0.52047738     0.09700
C733        C  0.42532706  0.87563252  0.53615872     0.20700
C734        C  0.36126993  0.87401064  0.52029220    -0.54100
C735        C  0.38435432  0.87981727  0.54819695     0.09800
C736        C  0.40919771  0.89742655  0.47307654    -0.53700
C737        C  0.43150832  0.90353589  0.50139108     0.10400
H738        H  0.40340364  0.80578859  0.47906294     0.14900
H739        H  0.44378837  0.88010999  0.55907190     0.00700
H740        H  0.33150668  0.87633079  0.52423807     0.15200
H741        H  0.40882656  0.91563928  0.44733722     0.15000
In742      In  0.48286718  0.00440802  0.49767943     1.36900
C743        C  0.41890792  0.53576609  0.49352357     0.77900
O744        O  0.45720517  0.95942383  0.47061049    -0.60500
O745        O  0.46453074  0.95107978  0.53018144    -0.51400
C746        C  0.04421957  0.98021213  0.46711218     0.70600
O747        O  0.02183919  0.99932114  0.44799808    -0.46300
C748        C  0.01243308  0.55869084  0.52928513     0.75300
O749        O  0.44030707  0.53319042  0.46389977    -0.58200
O750        O  0.50192338  0.52855402  0.54785039    -0.48300
O751        O  0.43049362  0.52204739  0.52425776    -0.54600
C752        C  0.45242572  0.93855618  0.50081119     0.85500
O753        O  0.03674554  0.97661766  0.50254471    -0.56500
O754        O  0.00653201  0.56139637  0.49445972    -0.59800
C755        C  0.09085277  0.91164677  0.40668104     0.86800
C756        C  0.09194216  0.88476123  0.44221653    -0.53400
C757        C  0.10156902  0.90151267  0.47337543     0.09700
C758        C  0.10855494  0.94364947  0.46612425     0.20700
C759        C  0.06456708  0.94179238  0.41731498    -0.54100
C760        C  0.07304269  0.95848618  0.44861588     0.09800
C761        C  0.12874536  0.93030260  0.40161564    -0.53700
C762        C  0.13851846  0.94710558  0.43268186     0.10400
H763        H  0.08607198  0.85527624  0.44256811     0.14900
H764        H  0.11585924  0.95752331  0.49148804     0.00700
H765        H  0.03954316  0.94743860  0.40297308     0.15200
H766        H  0.14639611  0.93022697  0.37556673     0.15000
In767      In  0.23953586  0.50115083  0.42091099     1.36900
C768        C  0.17418924  0.96724646  0.43103940     0.77900
O769        O  0.21036000  0.55464883  0.43130815    -0.60500
O770        O  0.22827799  0.54386354  0.37484843    -0.51400
C771        C  0.29181954  0.52824112  0.46018253     0.70600
O772        O  0.26177920  0.51496957  0.47621168    -0.46300
C773        C  0.27219476  0.94680231  0.38442260     0.75300
O774        O  0.19318313  0.97154325  0.45909419    -0.58200
O775        O  0.26915873  0.97936959  0.36947557    -0.48300
O776        O  0.18866561  0.98049873  0.39958054    -0.54600
C777        C  0.21031828  0.56447380  0.39653188     0.85500
O778        O  0.29595092  0.52466380  0.42508739    -0.56500
O779        O  0.25982826  0.94233343  0.41874282    -0.59800
C780        C  0.07729418  0.60751410  0.58799325     0.86800
C781        C  0.05047088  0.57793283  0.57852690    -0.53400
C782        C  0.03293032  0.58718562  0.54662300     0.09700
C783        C  0.04319982  0.62637462  0.52777225     0.20700
C784        C  0.10351635  0.61532239  0.55236498    -0.54100
C785        C  0.08562272  0.62510697  0.52064976     0.09800
C786        C  0.05472483  0.64211499  0.59134045    -0.53700
C787        C  0.03652856  0.65252869  0.56017059     0.10400
H788        H  0.04744628  0.55104138  0.59429386     0.14900
H789        H  0.02852260  0.63415807  0.50203420     0.00700
H790        H  0.13322211  0.61210876  0.55199955     0.15200
H791        H  0.05327596  0.65728913  0.61670916     0.15000
In792      In  0.47846971  0.74805769  0.57388105     1.36900
C793        C  0.01296553  0.68548797  0.56173447     0.77900
O794        O  0.03667008  0.77203068  0.56650521    -0.60500
O795        O  0.00580565  0.77389789  0.61965218    -0.51400
C796        C  0.44891726  0.80596627  0.53790102     0.70600
O797        O  0.45677348  0.77671335  0.52165425    -0.46300
C798        C  0.41705792  0.71838811  0.60966092     0.75300
O799        O  0.50565522  0.70745347  0.53379264    -0.58200
O800        O  0.44351713  0.73057029  0.62660561    -0.48300
O801        O  0.00072915  0.69507515  0.59354369    -0.54600
C802        C  0.03557708  0.78201621  0.59993111     0.85500
O803        O  0.45810950  0.80603243  0.57141252    -0.56500
O804        O  0.42109846  0.72289817  0.57401462    -0.59800
C805        C  0.34294160  0.86085090  0.42199673    -0.12900
C806        C  0.35816608  0.86046731  0.45121191    -0.14500
C807        C  0.35778852  0.89547580  0.61655752    -0.12900
C808        C  0.37151520  0.89051750  0.58531976    -0.14500
C809        C  0.07765766  0.87979294  0.34437440    -0.12900
C810        C  0.08065455  0.89480089  0.37294547    -0.14500
C811        C  0.10670174  0.86594173  0.54114050    -0.12900
C812        C  0.10511642  0.88123713  0.50975839    -0.14500
C813        C  0.36281061  0.63100345  0.38047204    -0.12900
C814        C  0.36223454  0.61645036  0.41214361    -0.14500
C815        C  0.33230589  0.63608918  0.57888190    -0.12900
C816        C  0.33044314  0.61987740  0.55053485    -0.14500
C817        C  0.10469653  0.62877804  0.48325174    -0.12900
C818        C  0.11965854  0.62851805  0.45168970    -0.14500
C819        C  0.09505681  0.59811773  0.62259623    -0.12900
C820        C  0.10958240  0.59868221  0.65168692    -0.14500
C821        C  0.13194487  0.60933012  0.68131313     0.86800
C822        C  0.16275766  0.58256226  0.68848025    -0.53400
C823        C  0.18529039  0.59270680  0.71498384     0.09700
C824        C  0.17489457  0.63019875  0.73150843     0.20700
C825        C  0.11149069  0.61359830  0.71992015    -0.54100
C826        C  0.13392707  0.62458210  0.74638029     0.09800
C827        C  0.15087651  0.64628296  0.67009595    -0.53700
C828        C  0.17343035  0.65786198  0.69588785     0.10400
H829        H  0.16510924  0.55637936  0.00877021     0.14900
H830        H  0.19334450  0.63890074  0.75293430     0.00700
H831        H  0.08211935  0.60815174  0.72588598     0.15200
H832        H  0.14669245  0.66219746  0.97687584     0.15000
C833        C  0.35767153  0.65293728  0.67826253     0.86800
C834        C  0.34698535  0.63055422  0.97891790    -0.53400
C835        C  0.34085070  0.65205476  0.94673063     0.09700
C836        C  0.34621728  0.69390782  0.95009643     0.20700
C837        C  0.39122610  0.67623059  0.99606003    -0.54100
C838        C  0.38575718  0.69756504  0.96362893     0.09800
C839        C  0.32696210  0.68047270  0.68358085    -0.53700
C840        C  0.32020357  0.70181692  0.98494761     0.10400
H841        H  0.34475237  0.60054063  0.98093987     0.14900
H842        H  0.34136788  0.71129838  0.92384947     0.00700
H843        H  0.41749428  0.67496387  0.67552403     0.15200
H844        H  0.31061142  0.68166062  0.71034015     0.15000
C845        C  0.08588699  0.85598469  0.98056135     0.86800
C846        C  0.09498997  0.87584167  0.94144398    -0.53400
C847        C  0.10451281  0.85241211  0.91409728     0.09700
C848        C  0.10486800  0.81099634  0.92900175     0.20700
C849        C  0.05582808  0.82770206  0.97540041    -0.54100
C850        C  0.06495033  0.80448654  0.94769271     0.09800
C851        C  0.11938182  0.83371097  0.98914186    -0.52900
C852        C  0.13006716  0.80976941  0.96308442     0.10400
H853        H  0.09209939  0.90548857  0.93548325     0.14900
H854        H  0.11279525  0.79180266  0.90695074     0.00700
H855        H  0.02866971  0.82793993  0.99034964     0.15200
H856        H  0.13387651  0.83687821  0.68121107     0.15000
In857      In  0.22376565  0.75758117  0.99579769     1.36900
C858        C  0.25565161  0.82084509  0.67427967     0.77900
O859        O  0.27328951  0.73419435  0.68433245    -0.60500
O860        O  0.26969894  0.73550637  0.95737873    -0.51400
C861        C  0.19363944  0.69322867  0.68633928     0.70600
O862        O  0.20100204  0.71640432  0.71005089    -0.46300
C863        C  0.16255111  0.78691706  0.97194811     0.75300
O864        O  0.24102235  0.80050140  0.70226192    -0.58200
O865        O  0.18713639  0.77630174  0.94795829    -0.48300
O866        O  0.25088370  0.80952975  0.97535404    -0.54600
C867        C  0.28743778  0.72546263  0.98599702     0.85500
O868        O  0.20233844  0.70340884  0.98520134    -0.56500
O869        O  0.16927987  0.78020650  0.67301641    -0.59800
C870        C  0.33861975  0.59782126  0.85123045     0.86800
C871        C  0.34674709  0.62129677  0.81359099    -0.53400
C872        C  0.35684622  0.60074297  0.78394597     0.09700
C873        C  0.35812107  0.55906782  0.79442913     0.20700
C874        C  0.30899088  0.56942268  0.84317760    -0.54100
C875        C  0.31898636  0.54934119  0.81286291     0.09800
C876        C  0.37318091  0.57534802  0.85676036    -0.53700
C877        C  0.38388743  0.55548868  0.82702818     0.10400
H878        H  0.34393567  0.65117976  0.81051142     0.14900
H879        H  0.36665521  0.54267720  0.77013300     0.00700
H880        H  0.28172927  0.56762669  0.85789640     0.15200
H881        H  0.38892423  0.57634040  0.88160176     0.15000
C882        C  0.33380918  0.89034806  0.98513853     0.86800
C883        C  0.31300331  0.92425974  0.66484104    -0.53400
C884        C  0.28981798  0.91671005  0.69686344     0.09700
C885        C  0.28861839  0.87506967  0.71157756     0.20700
C886        C  0.35296528  0.87473330  0.68660485    -0.54100
C887        C  0.32934531  0.86723515  0.71810264     0.09800
C888        C  0.30415160  0.86233701  0.97944405    -0.53700
C889        C  0.28054967  0.85320304  0.67681898     0.10400
H890        H  0.31780630  0.95196271  0.98468654     0.14900
H891        H  0.26951235  0.86842782  0.73708788     0.00700
H892        H  0.38269165  0.87224247  0.68696570     0.15200
H893        H  0.30337234  0.84896731  0.95304616     0.15000
C894        C  0.38184175  0.86525485  0.81589469     0.86800
C895        C  0.40557477  0.83177810  0.82553586    -0.53400
C896        C  0.42821569  0.83684532  0.85381088     0.09700
C897        C  0.42532704  0.87563266  0.86949213     0.20700
C898        C  0.36126985  0.87401074  0.85362566    -0.54100
C899        C  0.38435424  0.87981727  0.88153036     0.09800
C900        C  0.40919770  0.89742663  0.80640993    -0.53700
C901        C  0.43150831  0.90353597  0.83472444     0.10400
H902        H  0.40340376  0.80578951  0.81239667     0.14900
H903        H  0.44378834  0.88011023  0.89240521     0.00700
H904        H  0.33150632  0.87633074  0.85757188     0.15200
H905        H  0.40882660  0.91563932  0.78067056     0.15000
In906      In  0.48286717  0.00440799  0.83101281     1.36900
C907        C  0.41890789  0.53576605  0.82685687     0.77900
O908        O  0.45720508  0.95942386  0.80394381    -0.60500
O909        O  0.46453071  0.95107958  0.86351483    -0.51400
C910        C  0.04421971  0.98021217  0.80044546     0.70600
O911        O  0.02183929  0.99932114  0.78133144    -0.46300
C912        C  0.01243303  0.55869086  0.86261855     0.75300
O913        O  0.44030704  0.53319029  0.79723314    -0.58200
O914        O  0.50192330  0.52855407  0.88118377    -0.48300
O915        O  0.43049358  0.52204732  0.85759099    -0.54600
C916        C  0.45242579  0.93855609  0.83414448     0.85500
O917        O  0.03674573  0.97661771  0.83587792    -0.56500
O918        O  0.00653207  0.56139636  0.82779310    -0.59800
C919        C  0.09085265  0.91164670  0.74001445     0.86800
C920        C  0.09194212  0.88476110  0.77554987    -0.53400
C921        C  0.10156902  0.90151259  0.80670871     0.09700
C922        C  0.10855502  0.94364953  0.79945764     0.20700
C923        C  0.06456704  0.94179257  0.75064832    -0.54100
C924        C  0.07304280  0.95848630  0.78194917     0.09800
C925        C  0.12874534  0.93030246  0.73494892    -0.53700
C926        C  0.13851847  0.94710561  0.76601513     0.10400
H927        H  0.08607180  0.85527604  0.77590146     0.14900
H928        H  0.11585932  0.95752319  0.82482081     0.00700
H929        H  0.03954328  0.94743878  0.73630675     0.15200
H930        H  0.14639566  0.93022662  0.70890038     0.15000
In931      In  0.23953581  0.50115094  0.75424420     1.36900
C932        C  0.17418937  0.96724649  0.76437266     0.77900
O933        O  0.21035993  0.55464889  0.76464146    -0.60500
O934        O  0.22827785  0.54386370  0.70818153    -0.51400
C935        C  0.29181943  0.52824122  0.79351574     0.70600
O936        O  0.26177919  0.51496945  0.80954486    -0.46300
C937        C  0.27219461  0.94680212  0.71775591     0.75300
O938        O  0.19318339  0.97154323  0.79242746    -0.58200
O939        O  0.26915886  0.97936943  0.70280890    -0.48300
O940        O  0.18866560  0.98049876  0.73291368    -0.54600
C941        C  0.21031819  0.56447388  0.72986514     0.85500
O942        O  0.29595080  0.52466392  0.75842062    -0.56500
O943        O  0.25982834  0.94233336  0.75207622    -0.59800
C944        C  0.07729421  0.60751428  0.92132662     0.86800
C945        C  0.05047096  0.57793288  0.91186020    -0.53400
C946        C  0.03293030  0.58718576  0.87995627     0.09700
C947        C  0.04319977  0.62637471  0.86110561     0.20700
C948        C  0.10351634  0.61532245  0.88569822    -0.54100
C949        C  0.08562264  0.62510710  0.85398303     0.09800
C950        C  0.05472486  0.64211508  0.92467390    -0.53700
C951        C  0.03652853  0.65252874  0.89350410     0.10400
H952        H  0.04744630  0.55104229  0.92762684     0.14900
H953        H  0.02852242  0.63415813  0.83536752     0.00700
H954        H  0.13322200  0.61210904  0.88533260     0.15200
H955        H  0.05327584  0.65728938  0.95004329     0.15000
In956      In  0.47846966  0.74805765  0.90721441     1.36900
C957        C  0.01296545  0.68548789  0.89506789     0.77900
O958        O  0.03667000  0.77203063  0.89983858    -0.60500
O959        O  0.00580566  0.77389777  0.95298549    -0.51400
C960        C  0.44891722  0.80596621  0.87123444     0.70600
O961        O  0.45677350  0.77671329  0.85498760    -0.46300
C962        C  0.41705778  0.71838819  0.94299431     0.75300
O963        O  0.50565512  0.70745342  0.86712601    -0.58200
O964        O  0.44351707  0.73057028  0.95993892    -0.48300
O965        O  0.00072908  0.69507507  0.92687709    -0.54600
C966        C  0.03557702  0.78201619  0.93326443     0.85500
O967        O  0.45810944  0.80603240  0.90474596    -0.56500
O968        O  0.42109838  0.72289815  0.90734802    -0.59800
C969        C  0.34294159  0.86085086  0.75533014    -0.12900
C970        C  0.35816611  0.86046726  0.78454532    -0.14500
C971        C  0.35778853  0.89547588  0.94989088    -0.12900
C972        C  0.37151522  0.89051751  0.91865313    -0.14500
C973        C  0.07765761  0.87979302  0.67770770    -0.12900
C974        C  0.08065455  0.89480085  0.70627884    -0.14500
C975        C  0.10670172  0.86594170  0.87447373    -0.12900
C976        C  0.10511636  0.88123718  0.84309169    -0.14500
C977        C  0.36281062  0.63100356  0.71380541    -0.12900
C978        C  0.36223450  0.61645039  0.74547694    -0.14500
C979        C  0.33230584  0.63608924  0.91221521    -0.12900
C980        C  0.33044307  0.61987743  0.88386819    -0.14500
C981        C  0.10469640  0.62877815  0.81658501    -0.12900
C982        C  0.11965851  0.62851819  0.78502304    -0.14500
C983        C  0.09505688  0.59811772  0.95592960    -0.12900
C984        C  0.10958242  0.59868221  0.98502033    -0.14500
C985        C  0.63194481  0.10933012  0.01464635     0.86800
C986        C  0.66275766  0.08256223  0.02181353    -0.53400
C987        C  0.68529031  0.09270674  0.04831708     0.09700
C988        C  0.67489458  0.13019876  0.06484163     0.20700
C989        C  0.61149058  0.11359823  0.05325337    -0.54100
C990        C  0.63392700  0.12458201  0.07971343     0.09800
C991        C  0.65087642  0.14628300  0.00342921    -0.53700
C992        C  0.67343018  0.15786205  0.02922099     0.10400
H993        H  0.66510942  0.05637915  0.34210292     0.14900
H994        H  0.69334400  0.13890056  0.08626686     0.00700
H995        H  0.58211917  0.10815160  0.05921919     0.15200
H996        H  0.64669226  0.16219776  0.31020955     0.15000
C997        C  0.85767120  0.15293732  0.01159599     0.86800
C998        C  0.84698551  0.13055423  0.31225111    -0.53400
C999        C  0.84085083  0.15205487  0.28006382     0.09700
C1000       C  0.84621744  0.19390784  0.28342966     0.20700
C1001       C  0.89122635  0.17623055  0.32939333    -0.54100
C1002       C  0.88575737  0.19756502  0.29696218     0.09800
C1003       C  0.82696186  0.18047270  0.01691436    -0.53700
C1004       C  0.82020378  0.20181693  0.31828065     0.10400
H1005       H  0.84475256  0.10054091  0.31427289     0.14900
H1006       H  0.84136787  0.21129867  0.25718200     0.00700
H1007       H  0.91749363  0.17496384  0.00885711     0.15200
H1008       H  0.81061038  0.18166055  0.04367464     0.15000
C1009       C  0.58588712  0.35598447  0.31389497     0.86800
C1010       C  0.59499001  0.37584161  0.27477749    -0.53400
C1011       C  0.60451275  0.35241194  0.24743075     0.09700
C1012       C  0.60486807  0.31099628  0.26233522     0.20700
C1013       C  0.55582812  0.32770192  0.30873388    -0.54100
C1014       C  0.56495036  0.30448642  0.28102624     0.09800
C1015       C  0.61938193  0.33371096  0.32247538    -0.52900
C1016       C  0.63006726  0.30976950  0.29641804     0.10400
H1017       H  0.59209914  0.40548732  0.26881705     0.14900
H1018       H  0.61279557  0.29180283  0.24028470     0.00700
H1019       H  0.52866958  0.32793977  0.32368312     0.15200
H1020       H  0.63387584  0.33687818  0.01454301     0.15000
In1021     In  0.72376573  0.25758120  0.32913095     1.36900
C1022       C  0.75565147  0.32084506  0.00761308     0.77900
O1023       O  0.77328935  0.23419436  0.01766588    -0.60500
O1024       O  0.76969905  0.23550636  0.29071204    -0.51400
C1025       C  0.69363950  0.19322864  0.01967263     0.70600
O1026       O  0.70100196  0.21640424  0.04338435    -0.46300
C1027       C  0.66255119  0.28691706  0.30528132     0.75300
O1028       O  0.74102226  0.30050141  0.03559535    -0.58200
O1029       O  0.68713645  0.27630168  0.28129147    -0.48300
O1030       O  0.75088369  0.30953001  0.30868731    -0.54600
C1031       C  0.78743792  0.22546262  0.31933035     0.85500
O1032       O  0.70233855  0.20340879  0.31853461    -0.56500
O1033       O  0.66927973  0.28020647  0.00634976    -0.59800
C1034       C  0.83861962  0.09782130  0.18456361     0.86800
C1035       C  0.84674703  0.12129672  0.14692424    -0.53400
C1036       C  0.85684614  0.10074287  0.11727925     0.09700
C1037       C  0.85812097  0.05906770  0.12776243     0.20700
C1038       C  0.80899081  0.06942280  0.17651090    -0.54100
C1039       C  0.81898622  0.04934121  0.14619625     0.09800
C1040       C  0.87318089  0.07534802  0.19009356    -0.53700
C1041       C  0.88388737  0.05548859  0.16036129     0.10400
H1042       H  0.84393563  0.15117971  0.14384461     0.14900
H1043       H  0.86665508  0.04267688  0.10346632     0.00700
H1044       H  0.78172895  0.06762690  0.19123018     0.15200
H1045       H  0.88892337  0.07634032  0.21493383     0.15000
C1046       C  0.83380937  0.39034806  0.31847192     0.86800
C1047       C  0.81300311  0.42425976  0.99817439    -0.53400
C1048       C  0.78981778  0.41671003  0.03019682     0.09700
C1049       C  0.78861813  0.37506964  0.04491089     0.20700
C1050       C  0.85296514  0.37473323  0.01993820    -0.54100
C1051       C  0.82934503  0.36723516  0.05143598     0.09800
C1052       C  0.80415165  0.36233703  0.31277743    -0.53700
C1053       C  0.78054951  0.35320298  0.01015216     0.10400
H1054       H  0.81780665  0.45196280  0.31801976     0.14900
H1055       H  0.76951212  0.36842787  0.07042108     0.00700
H1056       H  0.88269068  0.37224249  0.02029919     0.15200
H1057       H  0.80337243  0.34896749  0.28638014     0.15000
C1058       C  0.88184177  0.36525463  0.14922809     0.86800
C1059       C  0.90557479  0.33177807  0.15886918    -0.53400
C1060       C  0.92821563  0.33684511  0.18714420     0.09700
C1061       C  0.92532704  0.37563245  0.20282547     0.20700
C1062       C  0.86126986  0.37401058  0.18695900    -0.54100
C1063       C  0.88435431  0.37981712  0.21486370     0.09800
C1064       C  0.90919777  0.39742646  0.13974334    -0.53700
C1065       C  0.93150833  0.40353582  0.16805798     0.10400
H1066       H  0.90340345  0.30578846  0.14572975     0.14900
H1067       H  0.94378842  0.38010992  0.22573903     0.00700
H1068       H  0.83150656  0.37633083  0.19090498     0.15200
H1069       H  0.90882630  0.41563910  0.11400485     0.15000
In1070     In  0.98286717  0.50440792  0.16434613     1.36900
C1071       C  0.91890797  0.03576608  0.16019021     0.77900
O1072       O  0.95720512  0.45942364  0.13727715    -0.60500
O1073       O  0.96453064  0.45107959  0.19684825    -0.51400
C1074       C  0.54421960  0.48021217  0.13377873     0.70600
O1075       O  0.52183922  0.49932111  0.11466461    -0.46300
C1076       C  0.51243297  0.05869090  0.19595177     0.75300
O1077       O  0.94030708  0.03319030  0.13056638    -0.58200
O1078       O  0.00192330  0.02855405  0.21451717    -0.48300
O1079       O  0.93049360  0.02204729  0.19092441    -0.54600
C1080       C  0.95242568  0.43855604  0.16747792     0.85500
O1081       O  0.53674564  0.47661780  0.16921125    -0.56500
O1082       O  0.50653198  0.06139645  0.16112633    -0.59800
C1083       C  0.59085267  0.41164673  0.07334776     0.86800
C1084       C  0.59194211  0.38476113  0.10888319    -0.53400
C1085       C  0.60156901  0.40151271  0.14004202     0.09700
C1086       C  0.60855499  0.44364961  0.13279089     0.20700
C1087       C  0.56456701  0.44179253  0.08398163    -0.54100
C1088       C  0.57304279  0.45848631  0.11528251     0.09800
C1089       C  0.62874525  0.43030258  0.06828230    -0.53700
C1090       C  0.63851845  0.44710565  0.09934847     0.10400
H1091       H  0.58607218  0.35527614  0.10923491     0.14900
H1092       H  0.61585914  0.45752344  0.15815450     0.00700
H1093       H  0.53954335  0.44743853  0.06964026     0.15200
H1094       H  0.64639599  0.43022661  0.04223343     0.15000
In1095     In  0.73953578  0.00115088  0.08757762     1.36900
C1096       C  0.67418921  0.46724650  0.09770602     0.77900
O1097       O  0.71035990  0.05464894  0.09797475    -0.60500
O1098       O  0.72827786  0.04386365  0.04151499    -0.51400
C1099       C  0.79181946  0.02824115  0.12684913     0.70600
O1100       O  0.76177919  0.01496955  0.14287833    -0.46300
C1101       C  0.77219460  0.44680215  0.05108938     0.75300
O1102       O  0.69318319  0.47154317  0.12576078    -0.58200
O1103       O  0.76915865  0.47936938  0.03614227    -0.48300
O1104       O  0.68866552  0.48049879  0.06624715    -0.54600
C1105       C  0.71031818  0.06447390  0.06319848     0.85500
O1106       O  0.79595075  0.02466391  0.09175397    -0.56500
O1107       O  0.75982828  0.44233340  0.08540968    -0.59800
C1108       C  0.57729417  0.10751419  0.25465984     0.86800
C1109       C  0.55047089  0.07793285  0.24519348    -0.53400
C1110       C  0.53293038  0.08718572  0.21328946     0.09700
C1111       C  0.54319982  0.12637472  0.19443886     0.20700
C1112       C  0.60351634  0.11532236  0.21903162    -0.54100
C1113       C  0.58562272  0.12510706  0.18731638     0.09800
C1114       C  0.55472481  0.14211506  0.25800709    -0.53700
C1115       C  0.53652852  0.15252874  0.22683723     0.10400
H1116       H  0.54744623  0.05104227  0.26096005     0.14900
H1117       H  0.52852262  0.13415820  0.16870080     0.00700
H1118       H  0.63322209  0.11210930  0.21866635     0.15200
H1119       H  0.55327590  0.15728912  0.28337576     0.15000
In1120     In  0.97846972  0.24805765  0.24054766     1.36900
C1121       C  0.51296551  0.18548794  0.22840109     0.77900
O1122       O  0.53667000  0.27203064  0.23317200    -0.60500
O1123       O  0.50580559  0.27389774  0.28631881    -0.51400
C1124       C  0.94891728  0.30596622  0.20456767     0.70600
O1125       O  0.95677354  0.27671332  0.18832083    -0.46300
C1126       C  0.91705791  0.21838814  0.27632761     0.75300
O1127       O  0.00565522  0.20745338  0.20045926    -0.58200
O1128       O  0.94351712  0.23057034  0.29327226    -0.48300
O1129       O  0.50072914  0.19507510  0.26021029    -0.54600
C1130       C  0.53557702  0.28201612  0.26659785     0.85500
O1131       O  0.95810950  0.30603240  0.23807916    -0.56500
O1132       O  0.92109853  0.22289801  0.24068129    -0.59800
C1133       C  0.84294149  0.36085090  0.08866348    -0.12900
C1134       C  0.85816606  0.36046730  0.11787866    -0.14500
C1135       C  0.85778855  0.39547584  0.28322419    -0.12900
C1136       C  0.87151518  0.39051748  0.25198640    -0.14500
C1137       C  0.57765759  0.37979306  0.01104099    -0.12900
C1138       C  0.58065455  0.39480082  0.03961218    -0.14500
C1139       C  0.60670174  0.36594165  0.20780712    -0.12900
C1140       C  0.60511629  0.38123721  0.17642507    -0.14500
C1141       C  0.86281048  0.13100345  0.04713872    -0.12900
C1142       C  0.86223442  0.11645032  0.07881027    -0.14500
C1143       C  0.83230592  0.13608917  0.24554855    -0.12900
C1144       C  0.83044314  0.11987750  0.21720142    -0.14500
C1145       C  0.60469651  0.12877814  0.14991830    -0.12900
C1146       C  0.61965867  0.12851818  0.11835631    -0.14500
C1147       C  0.59505679  0.09811771  0.28926285    -0.12900
C1148       C  0.60958242  0.09868218  0.31835354    -0.14500
C1149       C  0.63194493  0.10933014  0.34797967     0.86800
C1150       C  0.66275772  0.08256229  0.35514692    -0.53400
C1151       C  0.68529043  0.09270677  0.38165052     0.09700
C1152       C  0.67489462  0.13019874  0.39817503     0.20700
C1153       C  0.61149071  0.11359828  0.38658659    -0.54100
C1154       C  0.63392709  0.12458198  0.41304684     0.09800
C1155       C  0.65087656  0.14628292  0.33676256    -0.53700
C1156       C  0.67343036  0.15786197  0.36255439     0.10400
H1157       H  0.66510943  0.05637909  0.67543629     0.14900
H1158       H  0.69334451  0.13890081  0.41960081     0.00700
H1159       H  0.58211941  0.10815132  0.39255229     0.15200
H1160       H  0.64669274  0.16219712  0.64354319     0.15000
C1161       C  0.85767156  0.15293720  0.34492911     0.86800
C1162       C  0.84698552  0.13055418  0.64558462    -0.53400
C1163       C  0.84085079  0.15205480  0.61339727     0.09700
C1164       C  0.84621745  0.19390788  0.61676289     0.20700
C1165       C  0.89122630  0.17623059  0.66272663    -0.54100
C1166       C  0.88575734  0.19756511  0.63029554     0.09800
C1167       C  0.82696214  0.18047258  0.35024763    -0.53700
C1168       C  0.82020372  0.20181694  0.65161387     0.10400
H1169       H  0.84475247  0.10054067  0.64760670     0.14900
H1170       H  0.84136805  0.21129850  0.59051545     0.00700
H1171       H  0.91749424  0.17496343  0.34219053     0.15200
H1172       H  0.81061157  0.18166036  0.37700672     0.15000
C1173       C  0.58588712  0.35598469  0.64722816     0.86800
C1174       C  0.59498999  0.37584169  0.60811067    -0.53400
C1175       C  0.60451286  0.35241213  0.58076401     0.09700
C1176       C  0.60486811  0.31099635  0.59566854     0.20700
C1177       C  0.55582816  0.32770207  0.64206719    -0.54100
C1178       C  0.56495045  0.30448655  0.61435953     0.09800
C1179       C  0.61938187  0.33371098  0.65580866    -0.52900
C1180       C  0.63006729  0.30976952  0.62975132     0.10400
H1181       H  0.59209939  0.40548844  0.60215003     0.14900
H1182       H  0.61279525  0.29180288  0.57361814     0.00700
H1183       H  0.52866995  0.32794014  0.65701594     0.15200
H1184       H  0.63387649  0.33687821  0.34787770     0.15000
In1185     In  0.72376569  0.25758117  0.66246429     1.36900
C1186       C  0.75565149  0.32084510  0.34094643     0.77900
O1187       O  0.77328949  0.23419428  0.35099921    -0.60500
O1188       O  0.76969902  0.23550639  0.62404527    -0.51400
C1189       C  0.69363948  0.19322863  0.35300588     0.70600
O1190       O  0.70100205  0.21640428  0.37671749    -0.46300
C1191       C  0.66255116  0.28691699  0.63861472     0.75300
O1192       O  0.74102245  0.30050128  0.36892874    -0.58200
O1193       O  0.68713644  0.27630173  0.61462483    -0.48300
O1194       O  0.75088376  0.30952987  0.64202066    -0.54600
C1195       C  0.78743788  0.22546268  0.65266357     0.85500
O1196       O  0.70233844  0.20340875  0.65186803    -0.56500
O1197       O  0.66927976  0.28020643  0.33968304    -0.59800
C1198       C  0.83861966  0.09782146  0.51789703     0.86800
C1199       C  0.84674705  0.12129690  0.48025767    -0.53400
C1200       C  0.85684615  0.10074314  0.45061274     0.09700
C1201       C  0.85812097  0.05906790  0.46109587     0.20700
C1202       C  0.80899083  0.06942288  0.50984430    -0.54100
C1203       C  0.81898620  0.04934139  0.47952966     0.09800
C1204       C  0.87318091  0.07534814  0.52342695    -0.53700
C1205       C  0.88388738  0.05548880  0.49369474     0.10400
H1206       H  0.84393566  0.15118073  0.47717798     0.14900
H1207       H  0.86665509  0.04267743  0.43679990     0.00700
H1208       H  0.78172899  0.06762697  0.52456351     0.15200
H1209       H  0.88892373  0.07634029  0.54826765     0.15000
C1210       C  0.83380915  0.39034806  0.65180520     0.86800
C1211       C  0.81300331  0.42425960  0.33150773    -0.53400
C1212       C  0.78981802  0.41671007  0.36353011     0.09700
C1213       C  0.78861839  0.37506969  0.37824427     0.20700
C1214       C  0.85296531  0.37473329  0.35327152    -0.54100
C1215       C  0.82934533  0.36723518  0.38476927     0.09800
C1216       C  0.80415148  0.36233705  0.64611067    -0.53700
C1217       C  0.78054962  0.35320303  0.34348566     0.10400
H1218       H  0.81780637  0.45196266  0.65135326     0.14900
H1219       H  0.76951251  0.36842814  0.40375442     0.00700
H1220       H  0.88269169  0.37224230  0.35363231     0.15200
H1221       H  0.80337222  0.34896758  0.61971353     0.15000
C1222       C  0.88184177  0.36525468  0.48256132     0.86800
C1223       C  0.90557478  0.33177805  0.49220248    -0.53400
C1224       C  0.92821567  0.33684521  0.52047740     0.09700
C1225       C  0.92532706  0.37563257  0.53615875     0.20700
C1226       C  0.86126989  0.37401070  0.52029227    -0.54100
C1227       C  0.88435427  0.37981735  0.54819698     0.09800
C1228       C  0.90919769  0.39742661  0.47307658    -0.53700
C1229       C  0.93150837  0.40353590  0.50139114     0.10400
H1230       H  0.90340362  0.30578857  0.47906301     0.14900
H1231       H  0.94378838  0.38011003  0.55907182     0.00700
H1232       H  0.83150642  0.37633120  0.52423819     0.15200
H1233       H  0.90882674  0.41563877  0.44733754     0.15000
In1234     In  0.98286718  0.50440803  0.49767942     1.36900
C1235       C  0.91890780  0.03576593  0.49352358     0.77900
O1236       O  0.95720507  0.45942387  0.47061050    -0.60500
O1237       O  0.96453079  0.45107971  0.53018141    -0.51400
C1238       C  0.54421958  0.48021213  0.46711208     0.70600
O1239       O  0.52183918  0.49932113  0.44799807    -0.46300
C1240       C  0.51243304  0.05869093  0.52928513     0.75300
O1241       O  0.94030700  0.03319038  0.46389979    -0.58200
O1242       O  0.00192340  0.02855413  0.54785033    -0.48300
O1243       O  0.93049356  0.02204732  0.52425780    -0.54600
C1244       C  0.95242575  0.43855616  0.50081116     0.85500
O1245       O  0.53674561  0.47661770  0.50254455    -0.56500
O1246       O  0.50653203  0.06139643  0.49445972    -0.59800
C1247       C  0.59085267  0.41164672  0.40668107     0.86800
C1248       C  0.59194221  0.38476115  0.44221649    -0.53400
C1249       C  0.60156908  0.40151262  0.47337538     0.09700
C1250       C  0.60855493  0.44364953  0.46612426     0.20700
C1251       C  0.56456703  0.44179240  0.41731492    -0.54100
C1252       C  0.57304264  0.45848621  0.44861578     0.09800
C1253       C  0.62874529  0.43030256  0.40161558    -0.53700
C1254       C  0.63851845  0.44710559  0.43268185     0.10400
H1255       H  0.58607199  0.35527614  0.44256801     0.14900
H1256       H  0.61585918  0.45752351  0.49148761     0.00700
H1257       H  0.53954292  0.44743829  0.40297310     0.15200
H1258       H  0.64639556  0.43022693  0.37556695     0.15000
In1259     In  0.73953585  0.00115086  0.42091100     1.36900
C1260       C  0.67418933  0.46724651  0.43103939     0.77900
O1261       O  0.71035997  0.05464883  0.43130815    -0.60500
O1262       O  0.72827793  0.04386355  0.37484837    -0.51400
C1263       C  0.79181944  0.02824120  0.46018259     0.70600
O1264       O  0.76177922  0.01496941  0.47621180    -0.46300
C1265       C  0.77219464  0.44680220  0.38442258     0.75300
O1266       O  0.69318334  0.47154319  0.45909416    -0.58200
O1267       O  0.76915879  0.47936957  0.36947559    -0.48300
O1268       O  0.68866569  0.48049872  0.39958049    -0.54600
C1269       C  0.71031814  0.06447372  0.39653186     0.85500
O1270       O  0.79595087  0.02466385  0.42508747    -0.56500
O1271       O  0.75982841  0.44233332  0.41874289    -0.59800
C1272       C  0.57729416  0.10751420  0.58799334     0.86800
C1273       C  0.55047092  0.07793280  0.57852687    -0.53400
C1274       C  0.53293036  0.08718567  0.54662297     0.09700
C1275       C  0.54319980  0.12637473  0.52777232     0.20700
C1276       C  0.60351633  0.11532243  0.55236488    -0.54100
C1277       C  0.58562263  0.12510696  0.52064970     0.09800
C1278       C  0.55472486  0.14211508  0.59134054    -0.53700
C1279       C  0.53652864  0.15252885  0.56017078     0.10400
H1280       H  0.54744626  0.05104135  0.59429378     0.14900
H1281       H  0.52852249  0.13415825  0.50203427     0.00700
H1282       H  0.63322198  0.11210887  0.55199920     0.15200
H1283       H  0.55327610  0.15728990  0.61671024     0.15000
In1284     In  0.97846970  0.24805773  0.57388106     1.36900
C1285       C  0.51296537  0.18548790  0.56173448     0.77900
O1286       O  0.53667017  0.27203061  0.56650526    -0.60500
O1287       O  0.50580557  0.27389797  0.61965214    -0.51400
C1288       C  0.94891726  0.30596633  0.53790104     0.70600
O1289       O  0.95677347  0.27671341  0.52165426    -0.46300
C1290       C  0.91705789  0.21838823  0.60966091     0.75300
O1291       O  0.00565528  0.20745345  0.53379267    -0.58200
O1292       O  0.94351716  0.23057030  0.62660561    -0.48300
O1293       O  0.50072912  0.19507523  0.59354367    -0.54600
C1294       C  0.53557710  0.28201614  0.59993117     0.85500
O1295       O  0.95810949  0.30603250  0.57141253    -0.56500
O1296       O  0.92109849  0.22289818  0.57401459    -0.59800
C1297       C  0.84294154  0.36085094  0.42199677    -0.12900
C1298       C  0.85816611  0.36046723  0.45121191    -0.14500
C1299       C  0.85778852  0.39547584  0.61655756    -0.12900
C1300       C  0.87151522  0.39051748  0.58531983    -0.14500
C1301       C  0.57765768  0.37979304  0.34437433    -0.12900
C1302       C  0.58065460  0.39480084  0.37294548    -0.14500
C1303       C  0.60670172  0.36594164  0.54114040    -0.12900
C1304       C  0.60511641  0.38123714  0.50975836    -0.14500
C1305       C  0.86281066  0.13100343  0.38047204    -0.12900
C1306       C  0.86223452  0.11645039  0.41214365    -0.14500
C1307       C  0.83230585  0.13608925  0.57888188    -0.12900
C1308       C  0.83044313  0.11987747  0.55053483    -0.14500
C1309       C  0.60469643  0.12877814  0.48325163    -0.12900
C1310       C  0.61965854  0.12851816  0.45168964    -0.14500
C1311       C  0.59505692  0.09811769  0.62259620    -0.12900
C1312       C  0.60958251  0.09868222  0.65168687    -0.14500
C1313       C  0.63194489  0.10933011  0.68131310     0.86800
C1314       C  0.66275763  0.08256217  0.68848026    -0.53400
C1315       C  0.68529034  0.09270674  0.71498386     0.09700
C1316       C  0.67489455  0.13019874  0.73150843     0.20700
C1317       C  0.61149064  0.11359830  0.71992006    -0.54100
C1318       C  0.63392703  0.12458202  0.74638024     0.09800
C1319       C  0.65087651  0.14628297  0.67009592    -0.53700
C1320       C  0.67343032  0.15786198  0.69588785     0.10400
H1321       H  0.66510947  0.05637917  0.00876943     0.14900
H1322       H  0.69334439  0.13890051  0.75293427     0.00700
H1323       H  0.58211933  0.10815174  0.72588584     0.15200
H1324       H  0.64669254  0.16219763  0.97687578     0.15000
C1325       C  0.85767153  0.15293725  0.67826249     0.86800
C1326       C  0.84698533  0.13055427  0.97891798    -0.53400
C1327       C  0.84085066  0.15205485  0.94673065     0.09700
C1328       C  0.84621724  0.19390789  0.95009641     0.20700
C1329       C  0.89122607  0.17623067  0.99606000    -0.54100
C1330       C  0.88575711  0.19756508  0.96362887     0.09800
C1331       C  0.82696213  0.18047270  0.68358087    -0.53700
C1332       C  0.82020352  0.20181696  0.98494755     0.10400
H1333       H  0.84475238  0.10054080  0.98094002     0.14900
H1334       H  0.84136781  0.21129872  0.92384926     0.00700
H1335       H  0.91749423  0.17496388  0.67552413     0.15200
H1336       H  0.81061125  0.18166027  0.71033998     0.15000
C1337       C  0.58588698  0.35598456  0.98056137     0.86800
C1338       C  0.59498993  0.37584162  0.94144395    -0.53400
C1339       C  0.60451276  0.35241193  0.91409726     0.09700
C1340       C  0.60486798  0.31099626  0.92900168     0.20700
C1341       C  0.55582806  0.32770201  0.97540039    -0.54100
C1342       C  0.56495033  0.30448650  0.94769268     0.09800
C1343       C  0.61938181  0.33371093  0.98914186    -0.52900
C1344       C  0.63006719  0.30976943  0.96308438     0.10400
H1345       H  0.59209940  0.40548751  0.93548341     0.14900
H1346       H  0.61279511  0.29180266  0.90695066     0.00700
H1347       H  0.52866982  0.32793965  0.99034980     0.15200
H1348       H  0.63387608  0.33687813  0.68121072     0.15000
In1349     In  0.72376561  0.25758122  0.99579770     1.36900
C1350       C  0.75565154  0.32084509  0.67427968     0.77900
O1351       O  0.77328936  0.23419419  0.68433248    -0.60500
O1352       O  0.76969891  0.23550645  0.95737873    -0.51400
C1353       C  0.69363943  0.19322861  0.68633931     0.70600
O1354       O  0.70100198  0.21640426  0.71005093    -0.46300
C1355       C  0.66255106  0.28691702  0.97194806     0.75300
O1356       O  0.74102244  0.30050135  0.70226193    -0.58200
O1357       O  0.68713632  0.27630167  0.94795825    -0.48300
O1358       O  0.75088375  0.30952982  0.97535405    -0.54600
C1359       C  0.78743775  0.22546269  0.98599701     0.85500
O1360       O  0.70233843  0.20340891  0.98520132    -0.56500
O1361       O  0.66927979  0.28020642  0.67301644    -0.59800
C1362       C  0.83861969  0.09782143  0.85123041     0.86800
C1363       C  0.84674708  0.12129688  0.81359096    -0.53400
C1364       C  0.85684618  0.10074317  0.78394602     0.09700
C1365       C  0.85812107  0.05906791  0.79442915     0.20700
C1366       C  0.80899086  0.06942279  0.84317763    -0.54100
C1367       C  0.81898628  0.04934136  0.81286290     0.09800
C1368       C  0.87318090  0.07534813  0.85676034    -0.53700
C1369       C  0.88388739  0.05548868  0.82702826     0.10400
H1370       H  0.84393567  0.15118069  0.81051128     0.14900
H1371       H  0.86665518  0.04267760  0.77013317     0.00700
H1372       H  0.78172915  0.06762708  0.85789643     0.15200
H1373       H  0.88892391  0.07634013  0.88160177     0.15000
C1374       C  0.83380916  0.39034807  0.98513851     0.86800
C1375       C  0.81300333  0.42425971  0.66484108    -0.53400
C1376       C  0.78981799  0.41671006  0.69686350     0.09700
C1377       C  0.78861825  0.37506967  0.71157759     0.20700
C1378       C  0.85296507  0.37473325  0.68660484    -0.54100
C1379       C  0.82934505  0.36723519  0.71810269     0.09800
C1380       C  0.80415157  0.36233701  0.97944399    -0.53700
C1381       C  0.78054953  0.35320302  0.67681899     0.10400
H1382       H  0.81780616  0.45196264  0.98468660     0.14900
H1383       H  0.76951222  0.36842782  0.73708792     0.00700
H1384       H  0.88269060  0.37224236  0.68696562     0.15200
H1385       H  0.80337223  0.34896733  0.95304597     0.15000
C1386       C  0.88184171  0.36525465  0.81589467     0.86800
C1387       C  0.90557475  0.33177800  0.82553577    -0.53400
C1388       C  0.92821556  0.33684508  0.85381078     0.09700
C1389       C  0.92532698  0.37563243  0.86949209     0.20700
C1390       C  0.86126985  0.37401065  0.85362564    -0.54100
C1391       C  0.88435423  0.37981724  0.88153028     0.09800
C1392       C  0.90919771  0.39742648  0.80640994    -0.53700
C1393       C  0.93150826  0.40353580  0.83472452     0.10400
H1394       H  0.90340349  0.30578864  0.81239636     0.14900
H1395       H  0.94378801  0.38010984  0.89240506     0.00700
H1396       H  0.83150634  0.37633082  0.85757183     0.15200
H1397       H  0.90882653  0.41563895  0.78067133     0.15000
In1398     In  0.98286725  0.50440794  0.83101281     1.36900
C1399       C  0.91890795  0.03576603  0.82685693     0.77900
O1400       O  0.95720515  0.45942380  0.80394378    -0.60500
O1401       O  0.96453091  0.45107953  0.86351477    -0.51400
C1402       C  0.54421960  0.48021211  0.80044547     0.70600
O1403       O  0.52183913  0.49932105  0.78133149    -0.46300
C1404       C  0.51243293  0.05869088  0.86261856     0.75300
O1405       O  0.94030712  0.03319037  0.79723314    -0.58200
O1406       O  0.00192341  0.02855415  0.88118383    -0.48300
O1407       O  0.93049367  0.02204733  0.85759110    -0.54600
C1408       C  0.95242570  0.43855610  0.83414450     0.85500
O1409       O  0.53674556  0.47661760  0.83587794    -0.56500
O1410       O  0.50653201  0.06139632  0.82779309    -0.59800
C1411       C  0.59085266  0.41164671  0.74001442     0.86800
C1412       C  0.59194211  0.38476120  0.77554988    -0.53400
C1413       C  0.60156902  0.40151262  0.80670873     0.09700
C1414       C  0.60855500  0.44364951  0.79945758     0.20700
C1415       C  0.56456701  0.44179247  0.75064827    -0.54100
C1416       C  0.57304274  0.45848623  0.78194913     0.09800
C1417       C  0.62874534  0.43030241  0.73494890    -0.53700
C1418       C  0.63851844  0.44710559  0.76601507     0.10400
H1419       H  0.58607184  0.35527605  0.77590154     0.14900
H1420       H  0.61585929  0.45752319  0.82482075     0.00700
H1421       H  0.53954324  0.44743859  0.73630667     0.15200
H1422       H  0.64639554  0.43022683  0.70890035     0.15000
In1423     In  0.73953580  0.00115087  0.75424420     1.36900
C1424       C  0.67418935  0.46724646  0.76437256     0.77900
O1425       O  0.71035996  0.05464881  0.76464147    -0.60500
O1426       O  0.72827788  0.04386364  0.70818156    -0.51400
C1427       C  0.79181942  0.02824116  0.79351577     0.70600
O1428       O  0.76177909  0.01496949  0.80954484    -0.46300
C1429       C  0.77219471  0.44680223  0.71775595     0.75300
O1430       O  0.69318327  0.47154341  0.79242734    -0.58200
O1431       O  0.76915882  0.47936948  0.70280885    -0.48300
O1432       O  0.68866567  0.48049870  0.73291366    -0.54600
C1433       C  0.71031821  0.06447383  0.72986516     0.85500
O1434       O  0.79595082  0.02466381  0.75842067    -0.56500
O1435       O  0.75982843  0.44233355  0.75207627    -0.59800
C1436       C  0.57729419  0.10751431  0.92132665     0.86800
C1437       C  0.55047087  0.07793287  0.91186028    -0.53400
C1438       C  0.53293029  0.08718572  0.87995635     0.09700
C1439       C  0.54319978  0.12637469  0.86110569     0.20700
C1440       C  0.60351635  0.11532247  0.88569823    -0.54100
C1441       C  0.58562268  0.12510697  0.85398307     0.09800
C1442       C  0.55472493  0.14211517  0.92467391    -0.53700
C1443       C  0.53652860  0.15252881  0.89350419     0.10400
H1444       H  0.54744626  0.05104229  0.92762696     0.14900
H1445       H  0.52852261  0.13415800  0.83536810     0.00700
H1446       H  0.63322201  0.11210873  0.88533256     0.15200
H1447       H  0.55327593  0.15728958  0.95004343     0.15000
In1448     In  0.97846965  0.24805770  0.90721442     1.36900
C1449       C  0.51296538  0.18548795  0.89506784     0.77900
O1450       O  0.53667000  0.27203070  0.89983854    -0.60500
O1451       O  0.50580565  0.27389784  0.95298548    -0.51400
C1452       C  0.94891720  0.30596623  0.87123438     0.70600
O1453       O  0.95677340  0.27671331  0.85498761    -0.46300
C1454       C  0.91705776  0.21838817  0.94299428     0.75300
O1455       O  0.00565513  0.20745345  0.86712606    -0.58200
O1456       O  0.94351697  0.23057041  0.95993891    -0.48300
O1457       O  0.50072914  0.19507519  0.92687707    -0.54600
C1458       C  0.53557701  0.28201623  0.93326440     0.85500
O1459       O  0.95810941  0.30603242  0.90474587    -0.56500
O1460       O  0.92109845  0.22289809  0.90734801    -0.59800
C1461       C  0.84294153  0.36085089  0.75533012    -0.12900
C1462       C  0.85816607  0.36046736  0.78454527    -0.14500
C1463       C  0.85778853  0.39547580  0.94989087    -0.12900
C1464       C  0.87151525  0.39051749  0.91865311    -0.14500
C1465       C  0.57765761  0.37979301  0.67770776    -0.12900
C1466       C  0.58065455  0.39480092  0.70627884    -0.14500
C1467       C  0.60670168  0.36594173  0.87447379    -0.12900
C1468       C  0.60511635  0.38123719  0.84309173    -0.14500
C1469       C  0.86281060  0.13100349  0.71380536    -0.12900
C1470       C  0.86223446  0.11645047  0.74547696    -0.14500
C1471       C  0.83230584  0.13608929  0.91221524    -0.12900
C1472       C  0.83044309  0.11987738  0.88386828    -0.14500
C1473       C  0.60469639  0.12877803  0.81658500    -0.12900
C1474       C  0.61965849  0.12851809  0.78502302    -0.14500
C1475       C  0.59505682  0.09811777  0.95592957    -0.12900
C1476       C  0.60958245  0.09868220  0.98502023    -0.14500
C1477       C  0.63194480  0.60933012  0.01464630     0.86800
C1478       C  0.66275767  0.58256230  0.02181351    -0.53400
C1479       C  0.68529032  0.59270675  0.04831707     0.09700
C1480       C  0.67489452  0.63019874  0.06484164     0.20700
C1481       C  0.61149053  0.61359822  0.05325326    -0.54100
C1482       C  0.63392693  0.62458189  0.07971341     0.09800
C1483       C  0.65087640  0.64628289  0.00342916    -0.53700
C1484       C  0.67343016  0.65786197  0.02922093     0.10400
H1485       H  0.66510955  0.55637812  0.34210265     0.14900
H1486       H  0.69334388  0.63890064  0.08626681     0.00700
H1487       H  0.58211916  0.60815126  0.05921897     0.15200
H1488       H  0.64669227  0.66219735  0.31020970     0.15000
C1489       C  0.85767122  0.65293724  0.01159597     0.86800
C1490       C  0.84698546  0.63055428  0.31225114    -0.53400
C1491       C  0.84085079  0.65205505  0.28006382     0.09700
C1492       C  0.84621746  0.69390797  0.28342964     0.20700
C1493       C  0.89122636  0.67623060  0.32939333    -0.54100
C1494       C  0.88575741  0.69756508  0.29696216     0.09800
C1495       C  0.82696193  0.68047267  0.01691435    -0.53700
C1496       C  0.82020375  0.70181697  0.31828065     0.10400
H1497       H  0.84475253  0.60054169  0.31427289     0.14900
H1498       H  0.84136795  0.71129879  0.25718208     0.00700
H1499       H  0.91749357  0.67496349  0.00885703     0.15200
H1500       H  0.81061040  0.68166038  0.04367465     0.15000
C1501       C  0.58588714  0.85598460  0.31389489     0.86800
C1502       C  0.59498997  0.87584163  0.27477742    -0.53400
C1503       C  0.60451271  0.85241210  0.24743071     0.09700
C1504       C  0.60486808  0.81099637  0.26233520     0.20700
C1505       C  0.55582814  0.82770202  0.30873386    -0.54100
C1506       C  0.56495037  0.80448650  0.28102625     0.09800
C1507       C  0.61938197  0.83371097  0.32247530    -0.52900
C1508       C  0.63006731  0.80976954  0.29641796     0.10400
H1509       H  0.59209906  0.90548835  0.26881677     0.14900
H1510       H  0.61279553  0.79180294  0.24028471     0.00700
H1511       H  0.52866961  0.82793988  0.32368317     0.15200
H1512       H  0.63387570  0.83687814  0.01454306     0.15000
In1513     In  0.72376573  0.75758117  0.32913096     1.36900
C1514       C  0.75565143  0.82084508  0.00761311     0.77900
O1515       O  0.77328931  0.73419424  0.01766588    -0.60500
O1516       O  0.76969909  0.73550639  0.29071201    -0.51400
C1517       C  0.69363948  0.69322862  0.01967263     0.70600
O1518       O  0.70100197  0.71640424  0.04338434    -0.46300
C1519       C  0.66255119  0.78691696  0.30528129     0.75300
O1520       O  0.74102232  0.80050138  0.03559537    -0.58200
O1521       O  0.68713651  0.77630172  0.28129142    -0.48300
O1522       O  0.75088381  0.80952989  0.30868733    -0.54600
C1523       C  0.78743793  0.72546270  0.31933036     0.85500
O1524       O  0.70233849  0.70340870  0.31853466    -0.56500
O1525       O  0.66927962  0.78020648  0.00634978    -0.59800
C1526       C  0.83861957  0.59782150  0.18456357     0.86800
C1527       C  0.84674701  0.62129694  0.14692427    -0.53400
C1528       C  0.85684609  0.60074315  0.11727936     0.09700
C1529       C  0.85812094  0.55906789  0.12776250     0.20700
C1530       C  0.80899074  0.56942290  0.17651087    -0.54100
C1531       C  0.81898615  0.54934141  0.14619623     0.09800
C1532       C  0.87318089  0.57534815  0.19009358    -0.53700
C1533       C  0.88388735  0.55548873  0.16036134     0.10400
H1534       H  0.84393561  0.65118080  0.14384460     0.14900
H1535       H  0.86665500  0.54267745  0.10346648     0.00700
H1536       H  0.78172890  0.56762693  0.19123010     0.15200
H1537       H  0.88892310  0.57634007  0.21493388     0.15000
C1538       C  0.83380932  0.89034802  0.31847192     0.86800
C1539       C  0.81300319  0.92425962  0.99817444    -0.53400
C1540       C  0.78981789  0.91671001  0.03019685     0.09700
C1541       C  0.78861824  0.87506963  0.04491092     0.20700
C1542       C  0.85296519  0.87473325  0.01993817    -0.54100
C1543       C  0.82934520  0.86723518  0.05143592     0.09800
C1544       C  0.80415154  0.86233702  0.31277741    -0.53700
C1545       C  0.78054959  0.85320298  0.01015220     0.10400
H1546       H  0.81780634  0.95196258  0.31801991     0.14900
H1547       H  0.76951233  0.86842802  0.07042114     0.00700
H1548       H  0.88269157  0.87224239  0.02029913     0.15200
H1549       H  0.80337220  0.84896753  0.28638005     0.15000
C1550       C  0.88184172  0.86525470  0.14922803     0.86800
C1551       C  0.90557472  0.83177803  0.15886913    -0.53400
C1552       C  0.92821562  0.83684512  0.18714409     0.09700
C1553       C  0.92532706  0.87563251  0.20282539     0.20700
C1554       C  0.86126982  0.87401063  0.18695899    -0.54100
C1555       C  0.88435430  0.87981728  0.21486362     0.09800
C1556       C  0.90919774  0.89742660  0.13974319    -0.53700
C1557       C  0.93150825  0.90353592  0.16805789     0.10400
H1558       H  0.90340334  0.80578849  0.14572979     0.14900
H1559       H  0.94378839  0.88011022  0.22573859     0.00700
H1560       H  0.83150647  0.87633122  0.19090497     0.15200
H1561       H  0.90882630  0.91563915  0.11400476     0.15000
In1562     In  0.98286717  0.00440796  0.16434611     1.36900
C1563       C  0.91890788  0.53576596  0.16019028     0.77900
O1564       O  0.95720504  0.95942374  0.13727706    -0.60500
O1565       O  0.96453069  0.95107964  0.19684814    -0.51400
C1566       C  0.54421960  0.98021214  0.13377881     0.70600
O1567       O  0.52183924  0.99932112  0.11466467    -0.46300
C1568       C  0.51243290  0.55869089  0.19595184     0.75300
O1569       O  0.94030705  0.53319025  0.13056652    -0.58200
O1570       O  0.00192344  0.52855399  0.21451707    -0.48300
O1571       O  0.93049364  0.52204729  0.19092443    -0.54600
C1572       C  0.95242564  0.93855613  0.16747783     0.85500
O1573       O  0.53674560  0.97661769  0.16921135    -0.56500
O1574       O  0.50653184  0.56139638  0.16112640    -0.59800
C1575       C  0.59085273  0.91164671  0.07334777     0.86800
C1576       C  0.59194222  0.88476115  0.10888319    -0.53400
C1577       C  0.60156904  0.90151267  0.14004209     0.09700
C1578       C  0.60855496  0.94364952  0.13279093     0.20700
C1579       C  0.56456702  0.94179241  0.08398162    -0.54100
C1580       C  0.57304277  0.95848622  0.11528257     0.09800
C1581       C  0.62874524  0.93030259  0.06828228    -0.53700
C1582       C  0.63851843  0.94710562  0.09934852     0.10400
H1583       H  0.58607196  0.85527615  0.10923488     0.14900
H1584       H  0.61585911  0.95752365  0.15815475     0.00700
H1585       H  0.53954334  0.94743812  0.06964034     0.15200
H1586       H  0.64639587  0.93022693  0.04223339     0.15000
In1587     In  0.73953576  0.50115086  0.08757763     1.36900
C1588       C  0.67418921  0.96724656  0.09770603     0.77900
O1589       O  0.71035993  0.55464890  0.09797476    -0.60500
O1590       O  0.72827789  0.54386358  0.04151497    -0.51400
C1591       C  0.79181946  0.52824117  0.12684916     0.70600
O1592       O  0.76177921  0.51496951  0.14287836    -0.46300
C1593       C  0.77219463  0.94680220  0.05108937     0.75300
O1594       O  0.69318322  0.97154319  0.12576077    -0.58200
O1595       O  0.76915859  0.97936947  0.03614223    -0.48300
O1596       O  0.68866558  0.98049881  0.06624716    -0.54600
C1597       C  0.71031812  0.56447379  0.06319847     0.85500
O1598       O  0.79595077  0.52466388  0.09175403    -0.56500
O1599       O  0.75982833  0.94233338  0.08540969    -0.59800
C1600       C  0.57729412  0.60751420  0.25465995     0.86800
C1601       C  0.55047086  0.57793283  0.24519355    -0.53400
C1602       C  0.53293035  0.58718574  0.21328957     0.09700
C1603       C  0.54319981  0.62637474  0.19443894     0.20700
C1604       C  0.60351632  0.61532237  0.21903168    -0.54100
C1605       C  0.58562270  0.62510693  0.18731640     0.09800
C1606       C  0.55472473  0.64211507  0.25800711    -0.53700
C1607       C  0.53652853  0.65252880  0.22683730     0.10400
H1608       H  0.54744629  0.55104183  0.26095995     0.14900
H1609       H  0.52852257  0.63415819  0.16870089     0.00700
H1610       H  0.63322211  0.61210885  0.21866634     0.15200
H1611       H  0.55327601  0.65728967  0.28337609     0.15000
In1612     In  0.97846969  0.74805773  0.24054766     1.36900
C1613       C  0.51296544  0.68548797  0.22840107     0.77900
O1614       O  0.53667002  0.77203064  0.23317200    -0.60500
O1615       O  0.50580548  0.77389791  0.28631874    -0.51400
C1616       C  0.94891726  0.80596629  0.20456764     0.70600
O1617       O  0.95677350  0.77671340  0.18832084    -0.46300
C1618       C  0.91705793  0.71838820  0.27632760     0.75300
O1619       O  0.00565533  0.70745343  0.20045928    -0.58200
O1620       O  0.94351719  0.73057029  0.29327227    -0.48300
O1621       O  0.50072905  0.69507521  0.26021023    -0.54600
C1622       C  0.53557703  0.78201609  0.26659788     0.85500
O1623       O  0.95810953  0.80603251  0.23807911    -0.56500
O1624       O  0.92109847  0.72289816  0.24068128    -0.59800
C1625       C  0.84294155  0.86085094  0.08866343    -0.12900
C1626       C  0.85816599  0.86046723  0.11787866    -0.14500
C1627       C  0.85778856  0.89547583  0.28322419    -0.12900
C1628       C  0.87151521  0.89051747  0.25198641    -0.14500
C1629       C  0.57765758  0.87979308  0.01104100    -0.12900
C1630       C  0.58065459  0.89480081  0.03961219    -0.14500
C1631       C  0.60670170  0.86594164  0.20780709    -0.12900
C1632       C  0.60511630  0.88123716  0.17642506    -0.14500
C1633       C  0.86281046  0.63100344  0.04713874    -0.12900
C1634       C  0.86223453  0.61645037  0.07881032    -0.14500
C1635       C  0.83230588  0.63608929  0.24554854    -0.12900
C1636       C  0.83044314  0.61987748  0.21720149    -0.14500
C1637       C  0.60469648  0.62877811  0.14991828    -0.12900
C1638       C  0.61965857  0.62851814  0.11835626    -0.14500
C1639       C  0.59505677  0.59811771  0.28926288    -0.12900
C1640       C  0.60958242  0.59868212  0.31835354    -0.14500
C1641       C  0.63194494  0.60932990  0.34797968     0.86800
C1642       C  0.66275776  0.58256213  0.35514689    -0.53400
C1643       C  0.68529035  0.59270658  0.38165045     0.09700
C1644       C  0.67489456  0.63019863  0.39817501     0.20700
C1645       C  0.61149068  0.61359814  0.38658662    -0.54100
C1646       C  0.63392702  0.62458187  0.41304683     0.09800
C1647       C  0.65087647  0.64628280  0.33676259    -0.53700
C1648       C  0.67343028  0.65786187  0.36255440     0.10400
H1649       H  0.66510932  0.55637934  0.67543669     0.14900
H1650       H  0.69334428  0.63890038  0.41960071     0.00700
H1651       H  0.58211939  0.60815120  0.39255228     0.15200
H1652       H  0.64669281  0.66219712  0.64354316     0.15000
C1653       C  0.85767155  0.65293731  0.34492912     0.86800
C1654       C  0.84698548  0.63055429  0.64558460    -0.53400
C1655       C  0.84085075  0.65205488  0.61339721     0.09700
C1656       C  0.84621739  0.69390791  0.61676290     0.20700
C1657       C  0.89122626  0.67623064  0.66272662    -0.54100
C1658       C  0.88575728  0.69756512  0.63029551     0.09800
C1659       C  0.82696216  0.68047269  0.35024766    -0.53700
C1660       C  0.82020371  0.70181702  0.65161385     0.10400
H1661       H  0.84475244  0.60054083  0.64760668     0.14900
H1662       H  0.84136793  0.71129885  0.59051529     0.00700
H1663       H  0.91749426  0.67496340  0.34219050     0.15200
H1664       H  0.81061149  0.68166038  0.37700668     0.15000
C1665       C  0.58588708  0.85598452  0.64722825     0.86800
C1666       C  0.59498996  0.87584161  0.60811079    -0.53400
C1667       C  0.60451284  0.85241197  0.58076405     0.09700
C1668       C  0.60486810  0.81099629  0.59566846     0.20700
C1669       C  0.55582812  0.82770203  0.64206723    -0.54100
C1670       C  0.56495040  0.80448658  0.61435948     0.09800
C1671       C  0.61938184  0.83371096  0.65580868    -0.52900
C1672       C  0.63006729  0.80976955  0.62975126     0.10400
H1673       H  0.59209941  0.90548735  0.60215044     0.14900
H1674       H  0.61279520  0.79180285  0.57361797     0.00700
H1675       H  0.52866994  0.82794008  0.65701603     0.15200
H1676       H  0.63387635  0.83687797  0.34787765     0.15000
In1677     In  0.72376568  0.75758125  0.66246427     1.36900
C1678       C  0.75565156  0.82084506  0.34094642     0.77900
O1679       O  0.77328937  0.73419420  0.35099924    -0.60500
O1680       O  0.76969895  0.73550643  0.62404530    -0.51400
C1681       C  0.69363946  0.69322851  0.35300592     0.70600
O1682       O  0.70100200  0.71640419  0.37671751    -0.46300
C1683       C  0.66255113  0.78691707  0.63861477     0.75300
O1684       O  0.74102244  0.80050134  0.36892872    -0.58200
O1685       O  0.68713631  0.77630172  0.61462487    -0.48300
O1686       O  0.75088382  0.80952985  0.64202056    -0.54600
C1687       C  0.78743784  0.72546270  0.65266357     0.85500
O1688       O  0.70233845  0.70340883  0.65186810    -0.56500
O1689       O  0.66927983  0.78020638  0.33968301    -0.59800
C1690       C  0.83861960  0.59782144  0.51789702     0.86800
C1691       C  0.84674705  0.62129688  0.48025766    -0.53400
C1692       C  0.85684618  0.60074314  0.45061271     0.09700
C1693       C  0.85812101  0.55906790  0.46109584     0.20700
C1694       C  0.80899083  0.56942287  0.50984432    -0.54100
C1695       C  0.81898621  0.54934136  0.47952969     0.09800
C1696       C  0.87318088  0.57534811  0.52342691    -0.53700
C1697       C  0.88388735  0.55548872  0.49369474     0.10400
H1698       H  0.84393566  0.65118070  0.47717799     0.14900
H1699       H  0.86665515  0.54267751  0.43679988     0.00700
H1700       H  0.78172881  0.56762694  0.52456365     0.15200
H1701       H  0.88892362  0.57634021  0.54826755     0.15000
C1702       C  0.83380918  0.89034809  0.65180509     0.86800
C1703       C  0.81300334  0.92425969  0.33150780    -0.53400
C1704       C  0.78981799  0.91671008  0.36353017     0.09700
C1705       C  0.78861834  0.87506969  0.37824426     0.20700
C1706       C  0.85296526  0.87473328  0.35327152    -0.54100
C1707       C  0.82934528  0.86723523  0.38476929     0.09800
C1708       C  0.80415163  0.86233700  0.64611064    -0.53700
C1709       C  0.78054958  0.85320302  0.34348566     0.10400
H1710       H  0.81780623  0.95196276  0.65135324     0.14900
H1711       H  0.76951242  0.86842789  0.40375449     0.00700
H1712       H  0.88269167  0.87224230  0.35363233     0.15200
H1713       H  0.80337230  0.84896736  0.61971264     0.15000
C1714       C  0.88184178  0.86525472  0.48256121     0.86800
C1715       C  0.90557477  0.83177803  0.49220240    -0.53400
C1716       C  0.92821563  0.83684513  0.52047733     0.09700
C1717       C  0.92532699  0.87563248  0.53615872     0.20700
C1718       C  0.86126990  0.87401068  0.52029221    -0.54100
C1719       C  0.88435424  0.87981729  0.54819691     0.09800
C1720       C  0.90919772  0.89742655  0.47307652    -0.53700
C1721       C  0.93150825  0.90353591  0.50139106     0.10400
H1722       H  0.90340355  0.80578856  0.47906294     0.14900
H1723       H  0.94378793  0.88010986  0.55907165     0.00700
H1724       H  0.83150648  0.87633084  0.52423817     0.15200
H1725       H  0.90882654  0.91563937  0.44733721     0.15000
In1726     In  0.98286719  0.00440802  0.49767943     1.36900
C1727       C  0.91890789  0.53576607  0.49352357     0.77900
O1728       O  0.95720512  0.95942389  0.47061053    -0.60500
O1729       O  0.96453081  0.95107970  0.53018142    -0.51400
C1730       C  0.54421960  0.98021214  0.46711210     0.70600
O1731       O  0.52183918  0.99932110  0.44799809    -0.46300
C1732       C  0.51243297  0.55869084  0.52928516     0.75300
O1733       O  0.94030704  0.53319040  0.46389977    -0.58200
O1734       O  0.00192335  0.52855412  0.54785040    -0.48300
O1735       O  0.93049359  0.52204737  0.52425776    -0.54600
C1736       C  0.95242580  0.93855613  0.50081117     0.85500
O1737       O  0.53674556  0.97661767  0.50254458    -0.56500
O1738       O  0.50653204  0.56139633  0.49445970    -0.59800
C1739       C  0.59085268  0.91164679  0.40668112     0.86800
C1740       C  0.59194216  0.88476126  0.44221655    -0.53400
C1741       C  0.60156905  0.90151272  0.47337548     0.09700
C1742       C  0.60855499  0.94364956  0.46612426     0.20700
C1743       C  0.56456701  0.94179243  0.41731493    -0.54100
C1744       C  0.57304268  0.95848620  0.44861585     0.09800
C1745       C  0.62874537  0.93030254  0.40161571    -0.53700
C1746       C  0.63851853  0.94710560  0.43268197     0.10400
H1747       H  0.58607194  0.85527625  0.44256812     0.14900
H1748       H  0.61585934  0.95752371  0.49148812     0.00700
H1749       H  0.53954311  0.94743876  0.40297290     0.15200
H1750       H  0.64639564  0.93022697  0.37556712     0.15000
In1751     In  0.73953585  0.50115083  0.42091099     1.36900
C1752       C  0.67418936  0.96724647  0.43103941     0.77900
O1753       O  0.71035995  0.55464883  0.43130814    -0.60500
O1754       O  0.72827793  0.54386354  0.37484843    -0.51400
C1755       C  0.79181943  0.52824115  0.46018255     0.70600
O1756       O  0.76177911  0.51496952  0.47621172    -0.46300
C1757       C  0.77219463  0.94680227  0.38442258     0.75300
O1758       O  0.69318326  0.97154334  0.45909420    -0.58200
O1759       O  0.76915882  0.97936961  0.36947559    -0.48300
O1760       O  0.68866569  0.98049867  0.39958051    -0.54600
C1761       C  0.71031823  0.56447379  0.39653189     0.85500
O1762       O  0.79595088  0.52466378  0.42508742    -0.56500
O1763       O  0.75982833  0.94233344  0.41874287    -0.59800
C1764       C  0.57729419  0.60751409  0.58799328     0.86800
C1765       C  0.55047091  0.57793277  0.57852690    -0.53400
C1766       C  0.53293034  0.58718559  0.54662300     0.09700
C1767       C  0.54319978  0.62637464  0.52777230     0.20700
C1768       C  0.60351633  0.61532238  0.55236488    -0.54100
C1769       C  0.58562264  0.62510694  0.52064971     0.09800
C1770       C  0.55472492  0.64211497  0.59134052    -0.53700
C1771       C  0.53652860  0.65252874  0.56017073     0.10400
H1772       H  0.54744632  0.55104126  0.59429387     0.14900
H1773       H  0.52852252  0.63415789  0.50203429     0.00700
H1774       H  0.63322200  0.61210880  0.55199920     0.15200
H1775       H  0.55327608  0.65728930  0.61670984     0.15000
In1776     In  0.97846969  0.74805771  0.57388106     1.36900
C1777       C  0.51296542  0.68548791  0.56173447     0.77900
O1778       O  0.53667009  0.77203067  0.56650522    -0.60500
O1779       O  0.50580562  0.77389787  0.61965218    -0.51400
C1780       C  0.94891722  0.80596625  0.53790102     0.70600
O1781       O  0.95677344  0.77671333  0.52165424    -0.46300
C1782       C  0.91705784  0.71838823  0.60966094     0.75300
O1783       O  0.00565517  0.70745346  0.53379267    -0.58200
O1784       O  0.94351703  0.73057042  0.62660563    -0.48300
O1785       O  0.50072921  0.69507518  0.59354370    -0.54600
C1786       C  0.53557707  0.78201619  0.59993113     0.85500
O1787       O  0.95810946  0.80603243  0.57141251    -0.56500
O1788       O  0.92109849  0.72289813  0.57401463    -0.59800
C1789       C  0.84294151  0.86085090  0.42199677    -0.12900
C1790       C  0.85816610  0.86046734  0.45121188    -0.14500
C1791       C  0.85778856  0.89547584  0.61655750    -0.12900
C1792       C  0.87151526  0.89051752  0.58531975    -0.14500
C1793       C  0.57765768  0.87979296  0.34437439    -0.12900
C1794       C  0.58065461  0.89480090  0.37294546    -0.14500
C1795       C  0.60670170  0.86594170  0.54114049    -0.12900
C1796       C  0.60511635  0.88123711  0.50975841    -0.14500
C1797       C  0.86281061  0.63100344  0.38047201    -0.12900
C1798       C  0.86223449  0.61645037  0.41214360    -0.14500
C1799       C  0.83230586  0.63608925  0.57888187    -0.12900
C1800       C  0.83044314  0.61987742  0.55053487    -0.14500
C1801       C  0.60469640  0.62877805  0.48325164    -0.12900
C1802       C  0.61965850  0.62851806  0.45168965    -0.14500
C1803       C  0.59505690  0.59811777  0.62259619    -0.12900
C1804       C  0.60958249  0.59868215  0.65168687    -0.14500
C1805       C  0.63194472  0.60933012  0.68131319     0.86800
C1806       C  0.66275762  0.58256227  0.68848034    -0.53400
C1807       C  0.68529033  0.59270684  0.71498394     0.09700
C1808       C  0.67489448  0.63019873  0.73150846     0.20700
C1809       C  0.61149051  0.61359832  0.71992011    -0.54100
C1810       C  0.63392685  0.62458209  0.74638025     0.09800
C1811       C  0.65087642  0.64628296  0.67009595    -0.53700
C1812       C  0.67343033  0.65786192  0.69588787     0.10400
H1813       H  0.66510945  0.55637922  0.00876943     0.14900
H1814       H  0.69334441  0.63890074  0.75293432     0.00700
H1815       H  0.58211838  0.60815166  0.72588608     0.15200
H1816       H  0.64669239  0.66219755  0.97687572     0.15000
C1817       C  0.85767148  0.65293733  0.67826249     0.86800
C1818       C  0.84698539  0.63055422  0.97891790    -0.53400
C1819       C  0.84085075  0.65205475  0.94673062     0.09700
C1820       C  0.84621720  0.69390782  0.95009641     0.20700
C1821       C  0.89122613  0.67623056  0.99606004    -0.54100
C1822       C  0.88575712  0.69756504  0.96362893     0.09800
C1823       C  0.82696205  0.68047272  0.68358083    -0.53700
C1824       C  0.82020358  0.70181696  0.98494761     0.10400
H1825       H  0.84475231  0.60054062  0.98093992     0.14900
H1826       H  0.84136771  0.71129837  0.92384946     0.00700
H1827       H  0.91749426  0.67496385  0.67552398     0.15200
H1828       H  0.81061131  0.68166059  0.71034012     0.15000
C1829       C  0.58588697  0.85598469  0.98056131     0.86800
C1830       C  0.59498991  0.87584166  0.94144392    -0.53400
C1831       C  0.60451274  0.85241209  0.91409727     0.09700
C1832       C  0.60486797  0.81099633  0.92900174     0.20700
C1833       C  0.55582806  0.82770206  0.97540039    -0.54100
C1834       C  0.56495030  0.80448656  0.94769269     0.09800
C1835       C  0.61938180  0.83371097  0.98914185    -0.52900
C1836       C  0.63006712  0.80976936  0.96308445     0.10400
H1837       H  0.59209935  0.90548855  0.93548315     0.14900
H1838       H  0.61279515  0.79180274  0.90695071     0.00700
H1839       H  0.52866970  0.82793992  0.99034964     0.15200
H1840       H  0.63387599  0.83687810  0.68121066     0.15000
In1841     In  0.72376561  0.75758119  0.99579768     1.36900
C1842       C  0.75565151  0.82084507  0.67427962     0.77900
O1843       O  0.77328944  0.73419435  0.68433246    -0.60500
O1844       O  0.76969902  0.73550645  0.95737870    -0.51400
C1845       C  0.69363943  0.69322866  0.68633936     0.70600
O1846       O  0.70100200  0.71640438  0.71005094    -0.46300
C1847       C  0.66255112  0.78691711  0.97194805     0.75300
O1848       O  0.74102238  0.80050137  0.70226192    -0.58200
O1849       O  0.68713639  0.77630167  0.94795823    -0.48300
O1850       O  0.75088366  0.80952980  0.97535411    -0.54600
C1851       C  0.78743782  0.72546270  0.98599701     0.85500
O1852       O  0.70233843  0.70340889  0.98520131    -0.56500
O1853       O  0.66927983  0.78020650  0.67301649    -0.59800
C1854       C  0.83861968  0.59782127  0.85123045     0.86800
C1855       C  0.84674707  0.62129676  0.81359099    -0.53400
C1856       C  0.85684619  0.60074297  0.78394597     0.09700
C1857       C  0.85812105  0.55906781  0.79442913     0.20700
C1858       C  0.80899084  0.56942269  0.84317761    -0.54100
C1859       C  0.81898632  0.54934120  0.81286293     0.09800
C1860       C  0.87318088  0.57534802  0.85676034    -0.53700
C1861       C  0.88388742  0.55548864  0.82702818     0.10400
H1862       H  0.84393567  0.65117977  0.81051143     0.14900
H1863       H  0.86665514  0.54267720  0.77013300     0.00700
H1864       H  0.78172915  0.56762672  0.85789649     0.15200
H1865       H  0.88892418  0.57634038  0.88160166     0.15000
C1866       C  0.83380932  0.89034805  0.98513852     0.86800
C1867       C  0.81300321  0.92425974  0.66484097    -0.53400
C1868       C  0.78981792  0.91671000  0.69686340     0.09700
C1869       C  0.78861831  0.87506960  0.71157745     0.20700
C1870       C  0.85296513  0.87473329  0.68660478    -0.54100
C1871       C  0.82934511  0.86723515  0.71810262     0.09800
C1872       C  0.80415167  0.86233702  0.97944407    -0.53700
C1873       C  0.78054958  0.85320296  0.67681878     0.10400
H1874       H  0.81780624  0.95196263  0.98468648     0.14900
H1875       H  0.76951229  0.86842771  0.73708778     0.00700
H1876       H  0.88269065  0.87224254  0.68696561     0.15200
H1877       H  0.80337232  0.84896736  0.95304606     0.15000
C1878       C  0.88184173  0.86525478  0.81589472     0.86800
C1879       C  0.90557477  0.83177807  0.82553585    -0.53400
C1880       C  0.92821555  0.83684523  0.85381096     0.09700
C1881       C  0.92532700  0.87563262  0.86949216     0.20700
C1882       C  0.86126985  0.87401071  0.85362565    -0.54100
C1883       C  0.88435422  0.87981723  0.88153032     0.09800
C1884       C  0.90919771  0.89742657  0.80640996    -0.53700
C1885       C  0.93150825  0.90353592  0.83472452     0.10400
H1886       H  0.90340369  0.80578950  0.81239675     0.14900
H1887       H  0.94378799  0.88011017  0.89240505     0.00700
H1888       H  0.83150631  0.87633074  0.85757189     0.15200
H1889       H  0.90882656  0.91563903  0.78067130     0.15000
In1890     In  0.98286725  0.00440800  0.83101281     1.36900
C1891       C  0.91890793  0.53576600  0.82685686     0.77900
O1892       O  0.95720517  0.95942384  0.80394380    -0.60500
O1893       O  0.96453079  0.95107953  0.86351479    -0.51400
C1894       C  0.54421962  0.98021218  0.80044546     0.70600
O1895       O  0.52183919  0.99932114  0.78133145    -0.46300
C1896       C  0.51243288  0.55869088  0.86261849     0.75300
O1897       O  0.94030710  0.53319025  0.79723315    -0.58200
O1898       O  0.00192332  0.52855411  0.88118383    -0.48300
O1899       O  0.93049367  0.52204729  0.85759097    -0.54600
C1900       C  0.95242571  0.93855612  0.83414449     0.85500
O1901       O  0.53674562  0.97661773  0.83587793    -0.56500
O1902       O  0.50653202  0.56139628  0.82779299    -0.59800
C1903       C  0.59085259  0.91164671  0.74001440     0.86800
C1904       C  0.59194205  0.88476109  0.77554981    -0.53400
C1905       C  0.60156896  0.90151257  0.80670865     0.09700
C1906       C  0.60855493  0.94364954  0.79945757     0.20700
C1907       C  0.56456697  0.94179257  0.75064828    -0.54100
C1908       C  0.57304272  0.95848629  0.78194912     0.09800
C1909       C  0.62874529  0.93030244  0.73494885    -0.53700
C1910       C  0.63851841  0.94710562  0.76601504     0.10400
H1911       H  0.58607173  0.85527603  0.77590142     0.14900
H1912       H  0.61585891  0.95752316  0.82482072     0.00700
H1913       H  0.53954320  0.94743878  0.73630675     0.15200
H1914       H  0.64639558  0.93022658  0.70890031     0.15000
In1915     In  0.73953580  0.50115095  0.75424420     1.36900
C1916       C  0.67418932  0.96724649  0.76437257     0.77900
O1917       O  0.71036000  0.55464898  0.76464146    -0.60500
O1918       O  0.72827778  0.54386364  0.70818150    -0.51400
C1919       C  0.79181939  0.52824123  0.79351575     0.70600
O1920       O  0.76177915  0.51496946  0.80954487    -0.46300
C1921       C  0.77219467  0.94680212  0.71775593     0.75300
O1922       O  0.69318334  0.97154326  0.79242732    -0.58200
O1923       O  0.76915878  0.97936939  0.70280885    -0.48300
O1924       O  0.68866559  0.98049874  0.73291366    -0.54600
C1925       C  0.71031822  0.56447392  0.72986513     0.85500
O1926       O  0.79595076  0.52466394  0.75842063    -0.56500
O1927       O  0.75982842  0.94233341  0.75207626    -0.59800
C1928       C  0.57729420  0.60751432  0.92132659     0.86800
C1929       C  0.55047090  0.57793287  0.91186020    -0.53400
C1930       C  0.53293034  0.58718578  0.87995620     0.09700
C1931       C  0.54319978  0.62637475  0.86110561     0.20700
C1932       C  0.60351636  0.61532247  0.88569818    -0.54100
C1933       C  0.58562269  0.62510710  0.85398303     0.09800
C1934       C  0.55472486  0.64211509  0.92467392    -0.53700
C1935       C  0.53652852  0.65252876  0.89350418     0.10400
H1936       H  0.54744653  0.55104264  0.92762637     0.14900
H1937       H  0.52852257  0.63415807  0.83536801     0.00700
H1938       H  0.63322202  0.61210906  0.88533259     0.15200
H1939       H  0.55327581  0.65728945  0.95004346     0.15000
In1940     In  0.97846966  0.74805766  0.90721441     1.36900
C1941       C  0.51296533  0.68548787  0.89506784     0.77900
O1942       O  0.53667000  0.77203065  0.89983858    -0.60500
O1943       O  0.50580564  0.77389778  0.95298550    -0.51400
C1944       C  0.94891732  0.80596625  0.87123436     0.70600
O1945       O  0.95677344  0.77671322  0.85498762    -0.46300
C1946       C  0.91705779  0.71838818  0.94299432     0.75300
O1947       O  0.00565511  0.70745335  0.86712607    -0.58200
O1948       O  0.94351710  0.73057033  0.95993891    -0.48300
O1949       O  0.50072909  0.69507512  0.92687706    -0.54600
C1950       C  0.53557700  0.78201621  0.93326443     0.85500
O1951       O  0.95810953  0.80603248  0.90474586    -0.56500
O1952       O  0.92109839  0.72289817  0.90734803    -0.59800
C1953       C  0.84294154  0.86085089  0.75533013    -0.12900
C1954       C  0.85816609  0.86046730  0.78454532    -0.14500
C1955       C  0.85778855  0.89547590  0.94989081    -0.12900
C1956       C  0.87151523  0.89051750  0.91865306    -0.14500
C1957       C  0.57765760  0.87979301  0.67770772    -0.12900
C1958       C  0.58065450  0.89480090  0.70627881    -0.14500
C1959       C  0.60670165  0.86594171  0.87447376    -0.12900
C1960       C  0.60511632  0.88123715  0.84309168    -0.14500
C1961       C  0.86281055  0.63100356  0.71380539    -0.12900
C1962       C  0.86223444  0.61645039  0.74547692    -0.14500
C1963       C  0.83230584  0.63608926  0.91221523    -0.12900
C1964       C  0.83044306  0.61987745  0.88386821    -0.14500
C1965       C  0.60469639  0.62877815  0.81658498    -0.12900
C1966       C  0.61965846  0.62851820  0.78502301    -0.14500
C1967       C  0.59505680  0.59811770  0.95592952    -0.12900
C1968       C  0.60958248  0.59868219  0.98502015    -0.14500
loop_ 
_geom_bond_atom_site_label_1 
_geom_bond_atom_site_label_2 
_geom_bond_distance 
_geom_bond_site_symmetry_2 
_ccdc_geom_bond_type 
C1            C2   1.512       .  S
C1            C7   1.512       .  S
C1            C5   1.531       .  S
C1          C492   1.447   1_554  S
C2            C3   1.360       .  D
C2          H337   1.088       .  S
C3            C4   1.559       .  S
C3          C121   1.470       .  S
C4            C8   1.558       .  S
C4            C6   1.550       .  S
C4           H10   1.111       .  S
C5            C6   1.366       .  D
C5           H11   1.087       .  S
C6          C162   1.449       .  S
C7            C8   1.359       .  D
C7          H340   1.089   1_554  S
C8           C41   1.475       .  S
H9          C166   1.088       .  S
H12         C171   1.089       .  S
C13          C19   1.516       .  S
C13         C342   1.535   1_554  S
C13         C345   1.522   1_554  S
C13         C157   1.465       .  S
C14         C177   1.535       .  S
C14          C15   1.367       .  D
C14          H21   1.086       .  S
C15          C16   1.542       .  S
C15         C159   1.446       .  S
C16          C20   1.548       .  S
C16          C18   1.556       .  S
C16          H22   1.111       .  S
C17         C177   1.522       .  S
C17          C18   1.366       .  D
C17         H187   1.087       .  S
C18         C142   1.476       .  S
C19         C348   1.363   1_554  D
C19          H24   1.088       .  S
C20         C183   1.363       .  D
C20          C47   1.474       .  S
H23         C345   1.087   1_554  S
C25          C26   1.528       .  S
C25          C31   1.504       .  S
C25          C29   1.521       .  S
C25         C317   1.450       .  S
C26          C27   1.366       .  D
C26          H33   1.087       .  S
C27          C28   1.554       .  S
C27         C155   1.451       .  S
C28          C32   1.568       .  S
C28          C30   1.560       .  S
C28          H34   1.110       .  S
C29          C30   1.367       .  D
C29          H35   1.087       .  S
C30         C146   1.480       .  S
C31          C32   1.355       .  D
C31         H200   1.089       .  S
C32          C43   1.488       .  S
H36         C359   1.089   1_554  S
In37         O40   2.270       .  S
In37         O48   2.173       .  S
In37         O45   2.300       .  S
In37         O46   2.167       .  S
In37        O203   2.167       .  S
In37        O206   2.271       .  S
In37        O208   2.291       .  S
In37        O213   2.170       .  S
C38          C69   1.486       .  S
C38          O44   1.272       .  A
C38         O374   1.268   1_554  A
O39        In365   2.167   1_554  S
O39         C375   1.266   1_554  A
O40          C47   1.274       .  A
C41          O42   1.273       .  A
C41         O376   1.268   1_554  A
O42        In365   2.271   1_554  S
C43          O45   1.272       .  A
C43         O213   1.269       .  A
O44        In365   2.291   1_554  S
O46         C202   1.268       .  A
C47         O203   1.266       .  A
O48         C205   1.268       .  A
O49        In365   2.170   1_554  S
O49         C371   1.269   1_554  A
C50          C51   1.537       .  S
C50          C56   1.521       .  S
C50          C54   1.538       .  S
C50         C160   1.471       .  S
C51          C52   1.366       .  D
C51          H58   1.087       .  S
C52          C53   1.530       .  S
C52         C158   1.439       .  S
C53          C57   1.539       .  S
C53          C55   1.548       .  S
C53          H59   1.111       .  S
C54          C55   1.374       .  D
C54          H60   1.086       .  S
C55         C115   1.481       .  S
C56          C57   1.358       .  D
C56          H61   1.088       .  S
C57          C87   1.466       .  S
C62          C68   1.508       .  S
C62         C227   1.533       .  S
C62         C230   1.536       .  S
C62         C151   1.471       .  S
C63         C390   1.533       .  S
C63          C64   1.374   1_556  D
C63         H398   1.086       .  S
C64          C65   1.558       .  S
C64         C117   1.489       .  S
C65          C69   1.559       .  S
C65          C67   1.541       .  S
C65          H71   1.111       .  S
C66         C390   1.536   1_554  S
C66          C67   1.368       .  D
C66          H72   1.086       .  S
C67         C149   1.447       .  S
C68         C233   1.356       .  D
C68          H73   1.089       .  S
C69         C396   1.356   1_554  D
H70         C227   1.086       .  S
C74          C75   1.528       .  S
C74          C80   1.527       .  S
C74          C78   1.542       .  S
C74         C150   1.474       .  S
C75          C76   1.365       .  D
C75          H82   1.086       .  S
C76          C77   1.552       .  S
C76         C140   1.477       .  S
C77          C81   1.537       .  S
C77          C79   1.532       .  S
C77          H83   1.111       .  S
C78          C79   1.370       .  D
C78          H84   1.086       .  S
C79         C152   1.448       .  S
C80          C81   1.366       .  D
C80          H85   1.087       .  S
C81          C96   1.471       .  S
In86         O88   2.187       .  S
In86         O89   2.244       .  S
In86       O1081   2.223       .  S
In86       O1075   2.201       .  S
In86        O585   2.243       .  S
In86        O586   2.195       .  S
In86        O587   2.186       .  S
In86       O1574   2.221       .  S
C87          O93   1.272       .  A
C87          O95   1.266       .  A
O88          C96   1.265       .  A
O89          C96   1.273       .  A
C90         C104   1.464       .  S
C90          O97   1.264       .  A
C90          O91   1.274       .  A
O91       In1070   2.201   1_455  S
C92         C126   1.465       .  S
C92          O98   1.267       .  A
C92        O1078   1.273       .  A
O93        In578   2.243       .  S
O94        In578   2.195       .  S
O94        C1076   1.273       .  A
O95        In578   2.186       .  S
O97       In1070   2.223   1_455  S
O98       In1562   2.221   1_455  S
C99         C100   1.538       .  S
C99         C105   1.521       .  S
C99         C103   1.510       .  S
C99         C154   1.454       .  S
C100        C101   1.366       .  D
C100        H107   1.086       .  S
C101        C102   1.544       .  S
C101        C156   1.452       .  S
C102        C106   1.549       .  S
C102        C104   1.556       .  S
C102        H108   1.111       .  S
C103        C104   1.357       .  D
C103        H109   1.088       .  S
C105        C106   1.366       .  D
C105        H110   1.087       .  S
C106        C112   1.477       .  S
In111       O113   2.261       .  S
In111       O114   2.228       .  S
In111       O122   2.232       .  S
In111       O116   2.264       .  S
In111       O610   2.290   1_545  S
In111       O611   2.251   1_545  S
In111       O612   2.194   1_545  S
In111       O615   2.267   1_545  S
C112        O118   1.270       .  A
C112        O120   1.259       .  A
O113        C121   1.259       .  A
O114        C121   1.265       .  A
C115        O122   1.261       .  A
C115        O116   1.267       .  A
C117        O119   1.266       .  A
C117        O123   1.266       .  A
O118       In603   2.290       .  S
O119       In603   2.251       .  S
O120       In603   2.194       .  S
O123       In603   2.267       .  S
C124        C125   1.514       .  S
C124        C130   1.513       .  S
C124        C128   1.535       .  S
C124        C163   1.448       .  S
C125        C126   1.361       .  D
C125        H132   1.087       .  S
C126        C127   1.554       .  S
C127        C131   1.552       .  S
C127        C129   1.546       .  S
C127        H133   1.111       .  S
C128        C129   1.366       .  D
C128        H134   1.087       .  S
C129        C161   1.449       .  S
C130        C131   1.361       .  D
C130        H135   1.088       .  S
C131        C137   1.479       .  S
In136       O147   2.232       .  S
In136       O141   2.253       .  S
In136       O143   2.304       .  S
In136       O144   2.232       .  S
In136       O148   2.267       .  S
In136      O1122   2.269       .  S
In136      O1123   2.224       .  S
In136      O1129   2.177       .  S
C137        O145   1.258       .  A
C137       O1127   1.269       .  A
O138      In1120   2.269   1_455  S
O138        C146   1.264       .  A
O139      In1120   2.224   1_455  S
O139        C146   1.265       .  A
C140        O147   1.259       .  A
C140        O141   1.270       .  A
C142        O144   1.264       .  A
C142        O148   1.262       .  A
O143       C1121   1.269       .  A
O145      In1120   2.177   1_455  S
C149        C150   1.210       .  T
C151        C152   1.210       .  T
C153        C353   1.450   1_554  S
C153        C154   1.198       .  T
C155        C156   1.212       .  T
C157        C158   1.204       .  T
C159        C160   1.208       .  T
C161        C162   1.210       .  T
C163        C164   1.195       .  T
C164        C165   1.447       .  S
C165        C166   1.512       .  S
C165        C171   1.512       .  S
C165        C169   1.531       .  S
C166        C167   1.360       .  D
C167        C168   1.559       .  S
C167        C285   1.470       .  S
C168        C172   1.558       .  S
C168        C170   1.550       .  S
C168        H174   1.111       .  S
C169        C170   1.366       .  D
C169        H175   1.087       .  S
C170        C326   1.449       .  S
C171        C172   1.359       .  D
C172        C205   1.475       .  S
H173        C330   1.088       .  S
H176        C335   1.089       .  S
C177        C183   1.516       .  S
C177        C321   1.465       .  S
C178        C341   1.535       .  S
C178        C179   1.367       .  D
C178        H185   1.086       .  S
C179        C180   1.542       .  S
C179        C323   1.446       .  S
C180        C184   1.548       .  S
C180        C182   1.556       .  S
C180        H186   1.111       .  S
C181        C341   1.522       .  S
C181        C182   1.366       .  D
C181        H351   1.087       .  S
C182        C306   1.476       .  S
C183        H188   1.088       .  S
C184        C347   1.363       .  D
C184        C211   1.474       .  S
C189        C190   1.528       .  S
C189        C195   1.504       .  S
C189        C193   1.521       .  S
C189        C481   1.450       .  S
C190        C191   1.366       .  D
C190        H197   1.087       .  S
C191        C192   1.554       .  S
C191        C319   1.451       .  S
C192        C196   1.568       .  S
C192        C194   1.560       .  S
C192        H198   1.110       .  S
C193        C194   1.367       .  D
C193        H199   1.087       .  S
C194        C310   1.480       .  S
C195        C196   1.355       .  D
C195        H364   1.090       .  S
C196        C207   1.488       .  S
In201       O367   2.167       .  S
In201       O204   2.270       .  S
In201       O212   2.173       .  S
In201       O370   2.271       .  S
In201       O372   2.291       .  S
In201       O209   2.300       .  S
In201       O210   2.167       .  S
In201       O377   2.170       .  S
C202        C233   1.486       .  S
C202        O208   1.272       .  A
O204        C211   1.274       .  A
C205        O206   1.273       .  A
C207        O209   1.272       .  A
C207        O377   1.269       .  A
O210        C366   1.268       .  A
C211        O367   1.266       .  A
O212        C369   1.268       .  A
C214        C215   1.537       .  S
C214        C220   1.521       .  S
C214        C218   1.538       .  S
C214        C324   1.471       .  S
C215        C216   1.366       .  D
C215        H222   1.087       .  S
C216        C217   1.530       .  S
C216        C322   1.439       .  S
C217        C221   1.539       .  S
C217        C219   1.548       .  S
C217        H223   1.111       .  S
C218        C219   1.374       .  D
C218        H224   1.086       .  S
C219        C279   1.481       .  S
C220        C221   1.358       .  D
C220        H225   1.088       .  S
C221        C251   1.466       .  S
C226        C391   1.533       .  S
C226        C232   1.508       .  S
C226        C394   1.536       .  S
C226        C315   1.471       .  S
C227        C228   1.374       .  D
C228        C229   1.558       .  S
C228        C281   1.489       .  S
C229        C233   1.559       .  S
C229        C231   1.541       .  S
C229        H235   1.111       .  S
C230        C231   1.368       .  D
C230        H236   1.086       .  S
C231        C313   1.447       .  S
C232        C397   1.356       .  D
C232        H237   1.089       .  S
H234        C391   1.086       .  S
C238        C239   1.528       .  S
C238        C244   1.527       .  S
C238        C242   1.542       .  S
C238        C314   1.474       .  S
C239        C240   1.365       .  D
C239        H246   1.087       .  S
C240        C241   1.552       .  S
C240        C304   1.477       .  S
C241        C245   1.537       .  S
C241        C243   1.532       .  S
C241        H247   1.111       .  S
C242        C243   1.370       .  D
C242        H248   1.086       .  S
C243        C316   1.448       .  S
C244        C245   1.366       .  D
C244        H249   1.087       .  S
C245        C260   1.471       .  S
In250       O252   2.187       .  S
In250       O253   2.244       .  S
In250      O1245   2.223       .  S
In250      O1239   2.201       .  S
In250       O749   2.243       .  S
In250       O750   2.195       .  S
In250       O751   2.186       .  S
In250      O1738   2.221       .  S
C251        O257   1.272       .  A
C251        O259   1.266       .  A
O252        C260   1.265       .  A
O253        C260   1.273       .  A
C254        C268   1.464       .  S
C254        O261   1.264       .  A
C254        O255   1.274       .  A
O255      In1234   2.201   1_455  S
C256        C290   1.465       .  S
C256       O1242   1.273       .  A
C256        O262   1.267       .  A
O257       In742   2.243       .  S
O258       In742   2.195       .  S
O258       C1240   1.273       .  A
O259       In742   2.186       .  S
O261      In1234   2.223   1_455  S
O262      In1726   2.221   1_455  S
C263        C264   1.538       .  S
C263        C269   1.521       .  S
C263        C267   1.510       .  S
C263        C318   1.454       .  S
C264        C265   1.366       .  D
C264        H271   1.086       .  S
C265        C266   1.544       .  S
C265        C320   1.452       .  S
C266        C270   1.549       .  S
C266        C268   1.556       .  S
C266        H272   1.111       .  S
C267        C268   1.357       .  D
C267        H273   1.088       .  S
C269        C270   1.366       .  D
C269        H274   1.087       .  S
C270        C276   1.477       .  S
In275       O277   2.261       .  S
In275       O278   2.228       .  S
In275       O286   2.232       .  S
In275       O280   2.264       .  S
In275       O774   2.290   1_545  S
In275       O775   2.251   1_545  S
In275       O776   2.194   1_545  S
In275       O779   2.267   1_545  S
C276        O282   1.270       .  A
C276        O284   1.259       .  A
O277        C285   1.259       .  A
O278        C285   1.265       .  A
C279        O286   1.261       .  A
C279        O280   1.267       .  A
C281        O283   1.266       .  A
C281        O287   1.266       .  A
O282       In767   2.290       .  S
O283       In767   2.251       .  S
O284       In767   2.194       .  S
O287       In767   2.267       .  S
C288        C289   1.514       .  S
C288        C294   1.513       .  S
C288        C292   1.535       .  S
C288        C327   1.448       .  S
C289        C290   1.361       .  D
C289        H296   1.087       .  S
C290        C291   1.554       .  S
C291        C295   1.552       .  S
C291        C293   1.546       .  S
C291        H297   1.111       .  S
C292        C293   1.366       .  D
C292        H298   1.087       .  S
C293        C325   1.449       .  S
C294        C295   1.361       .  D
C294        H299   1.088       .  S
C295        C301   1.479       .  S
In300      O1286   2.269       .  S
In300      O1287   2.224       .  S
In300       O311   2.232       .  S
In300       O305   2.253       .  S
In300       O307   2.304       .  S
In300       O308   2.232       .  S
In300      O1293   2.177       .  S
In300       O312   2.267       .  S
C301       O1291   1.269       .  A
C301        O309   1.258       .  A
O302      In1284   2.269   1_455  S
O302        C310   1.264       .  A
O303      In1284   2.224   1_455  S
O303        C310   1.265       .  A
C304        O311   1.259       .  A
C304        O305   1.270       .  A
C306        O308   1.264       .  A
C306        O312   1.262       .  A
O307       C1285   1.269       .  A
O309      In1284   2.177   1_455  S
C313        C314   1.210       .  T
C315        C316   1.210       .  T
C317        C318   1.198       .  T
C319        C320   1.212       .  T
C321        C322   1.204       .  T
C323        C324   1.208       .  T
C325        C326   1.210       .  T
C327        C328   1.195       .  T
C328        C329   1.447       .  S
C329        C330   1.512       .  S
C329        C335   1.512       .  S
C329        C333   1.531       .  S
C330        C331   1.360       .  D
C331        C332   1.559       .  S
C331        C449   1.470       .  S
C332        C336   1.558       .  S
C332        C334   1.550       .  S
C332        H338   1.111       .  S
C333        C334   1.366       .  D
C333        H339   1.087       .  S
C334        C490   1.449       .  S
C335        C336   1.359       .  D
C336        C369   1.475       .  S
C341        C347   1.516       .  S
C341        C485   1.465       .  S
C342        C343   1.367       .  D
C342        H349   1.086       .  S
C343        C344   1.542       .  S
C343        C487   1.446       .  S
C344        C348   1.548       .  S
C344        C346   1.556       .  S
C344        H350   1.111       .  S
C345        C346   1.366       .  D
C346        C470   1.476       .  S
C347        H352   1.088       .  S
C348        C375   1.474       .  S
C353        C354   1.528       .  S
C353        C359   1.504       .  S
C353        C357   1.521       .  S
C354        C355   1.366       .  D
C354        H361   1.087       .  S
C355        C356   1.554       .  S
C355        C483   1.451       .  S
C356        C360   1.568       .  S
C356        C358   1.560       .  S
C356        H362   1.110       .  S
C357        C358   1.367       .  D
C357        H363   1.087       .  S
C358        C474   1.480       .  S
C359        C360   1.355       .  D
C360        C371   1.488       .  S
In365       O368   2.270       .  S
In365       O376   2.173       .  S
In365       O373   2.300       .  S
In365       O374   2.167       .  S
C366        C397   1.486       .  S
C366        O372   1.272       .  A
O368        C375   1.274       .  A
C369        O370   1.273       .  A
C371        O373   1.272       .  A
C378        C379   1.537       .  S
C378        C384   1.521       .  S
C378        C382   1.538       .  S
C378        C488   1.471       .  S
C379        C380   1.366       .  D
C379        H386   1.087       .  S
C380        C381   1.530       .  S
C380        C486   1.439       .  S
C381        C385   1.539       .  S
C381        C383   1.548       .  S
C381        H387   1.111       .  S
C382        C383   1.374       .  D
C382        H388   1.086       .  S
C383        C443   1.481       .  S
C384        C385   1.358       .  D
C384        H389   1.088       .  S
C385        C415   1.466       .  S
C390        C396   1.508       .  S
C390        C479   1.471       .  S
C391        C392   1.374       .  D
C392        C393   1.558       .  S
C392        C445   1.489       .  S
C393        C397   1.559       .  S
C393        C395   1.541       .  S
C393        H399   1.111       .  S
C394        C395   1.368       .  D
C394        H400   1.086       .  S
C395        C477   1.447       .  S
C396        H401   1.089       .  S
C402        C403   1.528       .  S
C402        C408   1.527       .  S
C402        C406   1.542       .  S
C402        C478   1.474       .  S
C403        C404   1.365       .  D
C403        H410   1.087       .  S
C404        C405   1.552       .  S
C404        C468   1.477       .  S
C405        C409   1.537       .  S
C405        C407   1.532       .  S
C405        H411   1.111       .  S
C406        C407   1.370       .  D
C406        H412   1.086       .  S
C407        C480   1.448       .  S
C408        C409   1.366       .  D
C408        H413   1.087       .  S
C409        C424   1.471       .  S
In414       O416   2.187       .  S
In414       O417   2.244       .  S
In414      O1409   2.223       .  S
In414      O1403   2.201       .  S
In414       O913   2.243       .  S
In414       O914   2.195       .  S
In414       O915   2.186       .  S
In414      O1902   2.221       .  S
C415        O421   1.272       .  A
C415        O423   1.266       .  A
O416        C424   1.265       .  A
O417        C424   1.273       .  A
C418        C432   1.464       .  S
C418        O425   1.264       .  A
C418        O419   1.274       .  A
O419      In1398   2.201   1_455  S
C420        C454   1.465       .  S
C420       O1406   1.273       .  A
C420        O426   1.267       .  A
O421       In906   2.243       .  S
O422       In906   2.195       .  S
O422       C1404   1.273       .  A
O423       In906   2.186       .  S
O425      In1398   2.223   1_455  S
O426      In1890   2.221   1_455  S
C427        C428   1.538       .  S
C427        C433   1.521       .  S
C427        C431   1.510       .  S
C427        C482   1.454       .  S
C428        C429   1.366       .  D
C428        H435   1.086       .  S
C429        C430   1.544       .  S
C429        C484   1.452       .  S
C430        C434   1.549       .  S
C430        C432   1.556       .  S
C430        H436   1.111       .  S
C431        C432   1.357       .  D
C431        H437   1.088       .  S
C433        C434   1.366       .  D
C433        H438   1.087       .  S
C434        C440   1.477       .  S
In439       O441   2.261       .  S
In439       O442   2.228       .  S
In439       O450   2.232       .  S
In439       O444   2.264       .  S
In439       O938   2.290   1_545  S
In439       O939   2.251   1_545  S
In439       O940   2.194   1_545  S
In439       O943   2.267   1_545  S
C440        O446   1.270       .  A
C440        O448   1.259       .  A
O441        C449   1.259       .  A
O442        C449   1.265       .  A
C443        O450   1.261       .  A
C443        O444   1.267       .  A
C445        O447   1.266       .  A
C445        O451   1.266       .  A
O446       In931   2.290       .  S
O447       In931   2.251       .  S
O448       In931   2.194       .  S
O451       In931   2.267       .  S
C452        C453   1.514       .  S
C452        C458   1.513       .  S
C452        C456   1.535       .  S
C452        C491   1.448       .  S
C453        C454   1.361       .  D
C453        H460   1.087       .  S
C454        C455   1.554       .  S
C455        C459   1.552       .  S
C455        C457   1.546       .  S
C455        H461   1.111       .  S
C456        C457   1.366       .  D
C456        H462   1.087       .  S
C457        C489   1.449       .  S
C458        C459   1.361       .  D
C458        H463   1.088       .  S
C459        C465   1.479       .  S
In464      O1450   2.269       .  S
In464      O1451   2.224       .  S
In464       O475   2.232       .  S
In464       O469   2.253       .  S
In464       O471   2.304       .  S
In464       O472   2.232       .  S
In464      O1457   2.177       .  S
In464       O476   2.267       .  S
C465       O1455   1.269       .  A
C465        O473   1.258       .  A
O466      In1448   2.269   1_455  S
O466        C474   1.264       .  A
O467      In1448   2.224   1_455  S
O467        C474   1.265       .  A
C468        O475   1.259       .  A
C468        O469   1.270       .  A
C470        O472   1.264       .  A
C470        O476   1.261       .  A
O471       C1449   1.269       .  A
O473      In1448   2.177   1_455  S
C477        C478   1.210       .  T
C479        C480   1.210       .  T
C481        C482   1.198       .  T
C483        C484   1.212       .  T
C485        C486   1.204       .  T
C487        C488   1.208       .  T
C489        C490   1.210       .  T
C491        C492   1.195       .  T
C493        C494   1.512       .  S
C493        C499   1.512       .  S
C493        C497   1.531       .  S
C493        C984   1.447   1_554  S
C494        C495   1.360       .  D
C494        H829   1.088       .  S
C495        C496   1.559       .  S
C495        C613   1.470       .  S
C496        C500   1.558       .  S
C496        C498   1.550       .  S
C496        H502   1.111       .  S
C497        C498   1.366       .  D
C497        H503   1.087       .  S
C498        C654   1.449       .  S
C499        C500   1.359       .  D
C499        H832   1.089   1_554  S
C500        C533   1.475       .  S
H501        C658   1.088       .  S
H504        C663   1.089       .  S
C505        C834   1.535   1_554  S
C505        C511   1.516       .  S
C505        C837   1.522   1_554  S
C505        C649   1.465       .  S
C506        C669   1.535       .  S
C506        C507   1.367       .  D
C506        H513   1.086       .  S
C507        C508   1.542       .  S
C507        C651   1.446       .  S
C508        C512   1.548       .  S
C508        C510   1.556       .  S
C508        H514   1.111       .  S
C509        C669   1.522       .  S
C509        C510   1.366       .  D
C509        H679   1.087       .  S
C510        C634   1.476       .  S
C511        C840   1.363   1_554  D
C511        H516   1.088       .  S
C512        C675   1.363       .  D
C512        C539   1.474       .  S
H515        C837   1.087   1_554  S
C517        C518   1.528       .  S
C517        C523   1.504       .  S
C517        C521   1.521       .  S
C517        C809   1.450       .  S
C518        C519   1.366       .  D
C518        H525   1.087       .  S
C519        C520   1.554       .  S
C519        C647   1.451       .  S
C520        C524   1.568       .  S
C520        C522   1.560       .  S
C520        H526   1.110       .  S
C521        C522   1.367       .  D
C521        H527   1.087       .  S
C522        C638   1.480       .  S
C523        C524   1.355       .  D
C523        H692   1.089       .  S
C524        C535   1.488       .  S
H528        C851   1.089   1_554  S
In529       O695   2.167       .  S
In529       O532   2.270       .  S
In529       O540   2.173       .  S
In529       O698   2.271       .  S
In529       O700   2.291       .  S
In529       O537   2.300       .  S
In529       O538   2.167       .  S
In529       O705   2.170       .  S
C530        C561   1.486       .  S
C530        O536   1.272       .  A
C530        O866   1.268   1_554  A
O531       In857   2.167   1_554  S
O531        C867   1.266   1_554  A
O532        C539   1.274       .  A
C533        O868   1.268   1_554  A
C533        O534   1.273       .  A
O534       In857   2.271   1_554  S
C535        O537   1.272       .  A
C535        O705   1.269       .  A
O536       In857   2.291   1_554  S
O538        C694   1.268       .  A
C539        O695   1.266       .  A
O540        C697   1.268       .  A
O541       In857   2.170   1_554  S
O541        C863   1.269   1_554  A
C542        C543   1.537       .  S
C542        C548   1.521       .  S
C542        C546   1.538       .  S
C542        C652   1.471       .  S
C543        C544   1.366       .  D
C543        H550   1.087       .  S
C544        C545   1.530       .  S
C544        C650   1.439       .  S
C545        C549   1.539       .  S
C545        C547   1.548       .  S
C545        H551   1.111       .  S
C546        C547   1.374       .  D
C546        H552   1.086       .  S
C547        C607   1.481       .  S
C548        C549   1.358       .  D
C548        H553   1.088       .  S
C549        C579   1.466       .  S
C554        C719   1.533       .  S
C554        C560   1.508       .  S
C554        C722   1.536       .  S
C554        C643   1.471       .  S
C555        C882   1.533       .  S
C555        C556   1.374   1_556  D
C555        H890   1.086       .  S
C556        C557   1.558       .  S
C556        C609   1.489       .  S
C557        C561   1.559       .  S
C557        C559   1.541       .  S
C557        H563   1.111       .  S
C558        C882   1.536   1_554  S
C558        C559   1.368       .  D
C558        H564   1.086       .  S
C559        C641   1.447       .  S
C560        C725   1.356       .  D
C560        H565   1.089       .  S
C561        C888   1.356   1_554  D
H562        C719   1.086       .  S
C566        C567   1.528       .  S
C566        C572   1.527       .  S
C566        C570   1.542       .  S
C566        C642   1.474       .  S
C567        C568   1.365       .  D
C567        H574   1.086       .  S
C568        C569   1.552       .  S
C568        C632   1.477       .  S
C569        C573   1.537       .  S
C569        C571   1.532       .  S
C569        H575   1.111       .  S
C570        C571   1.370       .  D
C570        H576   1.086       .  S
C571        C644   1.448       .  S
C572        C573   1.366       .  D
C572        H577   1.087       .  S
C573        C588   1.471       .  S
In578       O580   2.187   1_545  S
In578       O581   2.244   1_545  S
In578      O1573   2.223   1_545  S
In578      O1567   2.201   1_545  S
In578      O1082   2.221       .  S
C579        O585   1.272       .  A
C579        O587   1.266       .  A
O580        C588   1.265       .  A
O581        C588   1.273       .  A
C582        C596   1.464       .  S
C582        O589   1.264       .  A
C582        O583   1.274       .  A
O583      In1562   2.201   1_465  S
C584        C618   1.465       .  S
C584       O1570   1.273       .  A
C584        O590   1.267       .  A
O586       C1568   1.273       .  A
O589      In1562   2.223   1_465  S
O590      In1070   2.221   1_455  S
C591        C592   1.538       .  S
C591        C597   1.521       .  S
C591        C595   1.510       .  S
C591        C646   1.454       .  S
C592        C593   1.366       .  D
C592        H599   1.086       .  S
C593        C594   1.544       .  S
C593        C648   1.452       .  S
C594        C598   1.549       .  S
C594        C596   1.556       .  S
C594        H600   1.111       .  S
C595        C596   1.357       .  D
C595        H601   1.088       .  S
C597        C598   1.366       .  D
C597        H602   1.087       .  S
C598        C604   1.477       .  S
In603       O605   2.261       .  S
In603       O606   2.228       .  S
In603       O614   2.232       .  S
In603       O608   2.264       .  S
C604        O610   1.270       .  A
C604        O612   1.259       .  A
O605        C613   1.259       .  A
O606        C613   1.265       .  A
C607        O614   1.261       .  A
C607        O608   1.267       .  A
C609        O611   1.266       .  A
C609        O615   1.266       .  A
C616        C617   1.514       .  S
C616        C622   1.513       .  S
C616        C620   1.535       .  S
C616        C655   1.448       .  S
C617        C618   1.361       .  D
C617        H624   1.087       .  S
C618        C619   1.554       .  S
C619        C623   1.552       .  S
C619        C621   1.546       .  S
C619        H625   1.111       .  S
C620        C621   1.366       .  D
C620        H626   1.087       .  S
C621        C653   1.449       .  S
C622        C623   1.361       .  D
C622        H627   1.088       .  S
C623        C629   1.479       .  S
In628      O1614   2.269       .  S
In628      O1615   2.224       .  S
In628       O639   2.232       .  S
In628       O633   2.253       .  S
In628       O635   2.304       .  S
In628       O636   2.232       .  S
In628      O1621   2.177       .  S
In628       O640   2.267       .  S
C629       O1619   1.269       .  A
C629        O637   1.258       .  A
O630      In1612   2.269   1_455  S
O630        C638   1.264       .  A
O631      In1612   2.224   1_455  S
O631        C638   1.265       .  A
C632        O639   1.259       .  A
C632        O633   1.270       .  A
C634        O636   1.264       .  A
C634        O640   1.262       .  A
O635       C1613   1.269       .  A
O637      In1612   2.177   1_455  S
C641        C642   1.210       .  T
C643        C644   1.210       .  T
C645        C845   1.450   1_554  S
C645        C646   1.198       .  T
C647        C648   1.212       .  T
C649        C650   1.204       .  T
C651        C652   1.208       .  T
C653        C654   1.210       .  T
C655        C656   1.195       .  T
C656        C657   1.447       .  S
C657        C658   1.512       .  S
C657        C663   1.512       .  S
C657        C661   1.531       .  S
C658        C659   1.360       .  D
C659        C660   1.559       .  S
C659        C777   1.470       .  S
C660        C664   1.558       .  S
C660        C662   1.550       .  S
C660        H666   1.111       .  S
C661        C662   1.366       .  D
C661        H667   1.087       .  S
C662        C818   1.449       .  S
C663        C664   1.359       .  D
C664        C697   1.475       .  S
H665        C822   1.088       .  S
H668        C827   1.089       .  S
C669        C675   1.516       .  S
C669        C813   1.465       .  S
C670        C833   1.535       .  S
C670        C671   1.367       .  D
C670        H677   1.086       .  S
C671        C672   1.542       .  S
C671        C815   1.446       .  S
C672        C676   1.548       .  S
C672        C674   1.556       .  S
C672        H678   1.111       .  S
C673        C833   1.522       .  S
C673        C674   1.366       .  D
C673        H843   1.087       .  S
C674        C798   1.476       .  S
C675        H680   1.088       .  S
C676        C839   1.363       .  D
C676        C703   1.474       .  S
C681        C682   1.528       .  S
C681        C687   1.504       .  S
C681        C685   1.521       .  S
C681        C973   1.450       .  S
C682        C683   1.366       .  D
C682        H689   1.087       .  S
C683        C684   1.554       .  S
C683        C811   1.451       .  S
C684        C688   1.568       .  S
C684        C686   1.560       .  S
C684        H690   1.110       .  S
C685        C686   1.367       .  D
C685        H691   1.087       .  S
C686        C802   1.480       .  S
C687        C688   1.355       .  D
C687        H856   1.090       .  S
C688        C699   1.488       .  S
In693       O859   2.167       .  S
In693       O696   2.270       .  S
In693       O704   2.173       .  S
In693       O862   2.271       .  S
In693       O864   2.291       .  S
In693       O701   2.300       .  S
In693       O702   2.167       .  S
In693       O869   2.170       .  S
C694        C725   1.486       .  S
C694        O700   1.272       .  A
O696        C703   1.274       .  A
C697        O698   1.273       .  A
C699        O701   1.272       .  A
C699        O869   1.269       .  A
O702        C858   1.268       .  A
C703        O859   1.266       .  A
O704        C861   1.268       .  A
C706        C707   1.537       .  S
C706        C712   1.521       .  S
C706        C710   1.538       .  S
C706        C816   1.471       .  S
C707        C708   1.366       .  D
C707        H714   1.087       .  S
C708        C709   1.530       .  S
C708        C814   1.439       .  S
C709        C713   1.539       .  S
C709        C711   1.548       .  S
C709        H715   1.111       .  S
C710        C711   1.374       .  D
C710        H716   1.086       .  S
C711        C771   1.481       .  S
C712        C713   1.358       .  D
C712        H717   1.088       .  S
C713        C743   1.466       .  S
C718        C883   1.533       .  S
C718        C724   1.508       .  S
C718        C886   1.536       .  S
C718        C807   1.471       .  S
C719        C720   1.374       .  D
C720        C721   1.558       .  S
C720        C773   1.489       .  S
C721        C725   1.559       .  S
C721        C723   1.541       .  S
C721        H727   1.111       .  S
C722        C723   1.368       .  D
C722        H728   1.086       .  S
C723        C805   1.447       .  S
C724        C889   1.356       .  D
C724        H729   1.089       .  S
H726        C883   1.086       .  S
C730        C731   1.528       .  S
C730        C736   1.527       .  S
C730        C734   1.542       .  S
C730        C806   1.474       .  S
C731        C732   1.365       .  D
C731        H738   1.087       .  S
C732        C733   1.552       .  S
C732        C796   1.477       .  S
C733        C737   1.537       .  S
C733        C735   1.532       .  S
C733        H739   1.111       .  S
C734        C735   1.370       .  D
C734        H740   1.086       .  S
C735        C808   1.448       .  S
C736        C737   1.366       .  D
C736        H741   1.087       .  S
C737        C752   1.471       .  S
In742       O744   2.187   1_545  S
In742       O745   2.244   1_545  S
In742      O1737   2.223   1_545  S
In742      O1731   2.201   1_545  S
In742      O1246   2.221       .  S
C743        O749   1.272       .  A
C743        O751   1.266       .  A
O744        C752   1.265       .  A
O745        C752   1.273       .  A
C746        C760   1.464       .  S
C746        O753   1.264       .  A
C746        O747   1.274       .  A
O747      In1726   2.201   1_465  S
C748        C782   1.465       .  S
C748       O1734   1.273       .  A
C748        O754   1.267       .  A
O750       C1732   1.273       .  A
O753      In1726   2.223   1_465  S
O754      In1234   2.221   1_455  S
C755        C756   1.538       .  S
C755        C761   1.521       .  S
C755        C759   1.510       .  S
C755        C810   1.454       .  S
C756        C757   1.366       .  D
C756        H763   1.086       .  S
C757        C758   1.544       .  S
C757        C812   1.452       .  S
C758        C762   1.549       .  S
C758        C760   1.556       .  S
C758        H764   1.111       .  S
C759        C760   1.357       .  D
C759        H765   1.088       .  S
C761        C762   1.366       .  D
C761        H766   1.087       .  S
C762        C768   1.477       .  S
In767       O769   2.261       .  S
In767       O770   2.228       .  S
In767       O778   2.232       .  S
In767       O772   2.264       .  S
C768        O774   1.270       .  A
C768        O776   1.259       .  A
O769        C777   1.259       .  A
O770        C777   1.265       .  A
C771        O778   1.261       .  A
C771        O772   1.267       .  A
C773        O775   1.266       .  A
C773        O779   1.266       .  A
C780        C781   1.514       .  S
C780        C786   1.513       .  S
C780        C784   1.535       .  S
C780        C819   1.448       .  S
C781        C782   1.361       .  D
C781        H788   1.087       .  S
C782        C783   1.554       .  S
C783        C787   1.552       .  S
C783        C785   1.546       .  S
C783        H789   1.111       .  S
C784        C785   1.366       .  D
C784        H790   1.087       .  S
C785        C817   1.449       .  S
C786        C787   1.361       .  D
C786        H791   1.088       .  S
C787        C793   1.479       .  S
In792      O1778   2.269       .  S
In792      O1779   2.224       .  S
In792       O803   2.232       .  S
In792       O797   2.253       .  S
In792       O799   2.304       .  S
In792       O800   2.232       .  S
In792      O1785   2.177       .  S
In792       O804   2.267       .  S
C793       O1783   1.269       .  A
C793        O801   1.258       .  A
O794      In1776   2.269   1_455  S
O794        C802   1.264       .  A
O795      In1776   2.224   1_455  S
O795        C802   1.265       .  A
C796        O803   1.259       .  A
C796        O797   1.270       .  A
C798        O800   1.264       .  A
C798        O804   1.262       .  A
O799       C1777   1.269       .  A
O801      In1776   2.177   1_455  S
C805        C806   1.210       .  T
C807        C808   1.210       .  T
C809        C810   1.198       .  T
C811        C812   1.212       .  T
C813        C814   1.204       .  T
C815        C816   1.208       .  T
C817        C818   1.210       .  T
C819        C820   1.195       .  T
C820        C821   1.447       .  S
C821        C822   1.512       .  S
C821        C827   1.512       .  S
C821        C825   1.531       .  S
C822        C823   1.360       .  D
C823        C824   1.559       .  S
C823        C941   1.470       .  S
C824        C828   1.558       .  S
C824        C826   1.550       .  S
C824        H830   1.111       .  S
C825        C826   1.366       .  D
C825        H831   1.087       .  S
C826        C982   1.449       .  S
C827        C828   1.359       .  D
C828        C861   1.475       .  S
C833        C839   1.516       .  S
C833        C977   1.465       .  S
C834        C835   1.367       .  D
C834        H841   1.086       .  S
C835        C836   1.542       .  S
C835        C979   1.446       .  S
C836        C840   1.548       .  S
C836        C838   1.556       .  S
C836        H842   1.111       .  S
C837        C838   1.366       .  D
C838        C962   1.476       .  S
C839        H844   1.088       .  S
C840        C867   1.474       .  S
C845        C846   1.528       .  S
C845        C851   1.504       .  S
C845        C849   1.521       .  S
C846        C847   1.366       .  D
C846        H853   1.087       .  S
C847        C848   1.554       .  S
C847        C975   1.451       .  S
C848        C852   1.568       .  S
C848        C850   1.560       .  S
C848        H854   1.110       .  S
C849        C850   1.367       .  D
C849        H855   1.087       .  S
C850        C966   1.480       .  S
C851        C852   1.355       .  D
C852        C863   1.488       .  S
In857       O860   2.270       .  S
In857       O868   2.173       .  S
In857       O865   2.300       .  S
In857       O866   2.167       .  S
C858        C889   1.486       .  S
C858        O864   1.272       .  A
O860        C867   1.274       .  A
C861        O862   1.273       .  A
C863        O865   1.272       .  A
C870        C871   1.537       .  S
C870        C876   1.521       .  S
C870        C874   1.538       .  S
C870        C980   1.471       .  S
C871        C872   1.366       .  D
C871        H878   1.087       .  S
C872        C873   1.530       .  S
C872        C978   1.439       .  S
C873        C877   1.539       .  S
C873        C875   1.548       .  S
C873        H879   1.111       .  S
C874        C875   1.374       .  D
C874        H880   1.086       .  S
C875        C935   1.481       .  S
C876        C877   1.358       .  D
C876        H881   1.088       .  S
C877        C907   1.466       .  S
C882        C888   1.508       .  S
C882        C971   1.471       .  S
C883        C884   1.374       .  D
C884        C885   1.558       .  S
C884        C937   1.489       .  S
C885        C889   1.559       .  S
C885        C887   1.541       .  S
C885        H891   1.111       .  S
C886        C887   1.368       .  D
C886        H892   1.086       .  S
C887        C969   1.447       .  S
C888        H893   1.089       .  S
C894        C895   1.528       .  S
C894        C900   1.527       .  S
C894        C898   1.542       .  S
C894        C970   1.474       .  S
C895        C896   1.365       .  D
C895        H902   1.086       .  S
C896        C897   1.552       .  S
C896        C960   1.477       .  S
C897        C901   1.537       .  S
C897        C899   1.532       .  S
C897        H903   1.111       .  S
C898        C899   1.370       .  D
C898        H904   1.086       .  S
C899        C972   1.448       .  S
C900        C901   1.366       .  D
C900        H905   1.087       .  S
C901        C916   1.471       .  S
In906       O908   2.187   1_545  S
In906       O909   2.244   1_545  S
In906      O1901   2.223   1_545  S
In906      O1895   2.201   1_545  S
In906      O1410   2.221       .  S
C907        O913   1.272       .  A
C907        O915   1.266       .  A
O908        C916   1.265       .  A
O909        C916   1.273       .  A
C910        C924   1.464       .  S
C910        O917   1.264       .  A
C910        O911   1.274       .  A
O911      In1890   2.201   1_465  S
C912        C946   1.465       .  S
C912       O1898   1.273       .  A
C912        O918   1.267       .  A
O914       C1896   1.273       .  A
O917      In1890   2.223   1_465  S
O918      In1398   2.221   1_455  S
C919        C920   1.538       .  S
C919        C925   1.521       .  S
C919        C923   1.510       .  S
C919        C974   1.454       .  S
C920        C921   1.366       .  D
C920        H927   1.086       .  S
C921        C922   1.544       .  S
C921        C976   1.452       .  S
C922        C926   1.549       .  S
C922        C924   1.556       .  S
C922        H928   1.111       .  S
C923        C924   1.357       .  D
C923        H929   1.088       .  S
C925        C926   1.366       .  D
C925        H930   1.087       .  S
C926        C932   1.477       .  S
In931       O933   2.261       .  S
In931       O934   2.228       .  S
In931       O942   2.232       .  S
In931       O936   2.264       .  S
C932        O938   1.270       .  A
C932        O940   1.259       .  A
O933        C941   1.259       .  A
O934        C941   1.265       .  A
C935        O942   1.261       .  A
C935        O936   1.267       .  A
C937        O939   1.266       .  A
C937        O943   1.266       .  A
C944        C945   1.514       .  S
C944        C950   1.513       .  S
C944        C948   1.535       .  S
C944        C983   1.448       .  S
C945        C946   1.361       .  D
C945        H952   1.087       .  S
C946        C947   1.554       .  S
C947        C951   1.552       .  S
C947        C949   1.546       .  S
C947        H953   1.111       .  S
C948        C949   1.366       .  D
C948        H954   1.087       .  S
C949        C981   1.449       .  S
C950        C951   1.361       .  D
C950        H955   1.088       .  S
C951        C957   1.479       .  S
In956      O1942   2.269       .  S
In956      O1943   2.224       .  S
In956       O967   2.232       .  S
In956       O961   2.253       .  S
In956       O963   2.304       .  S
In956       O964   2.232       .  S
In956      O1949   2.177       .  S
In956       O968   2.267       .  S
C957       O1947   1.269       .  A
C957        O965   1.258       .  A
O958      In1940   2.269   1_455  S
O958        C966   1.264       .  A
O959      In1940   2.224   1_455  S
O959        C966   1.265       .  A
C960        O967   1.259       .  A
C960        O961   1.270       .  A
C962        O964   1.264       .  A
C962        O968   1.261       .  A
O963       C1941   1.269       .  A
O965      In1940   2.177   1_455  S
C969        C970   1.210       .  T
C971        C972   1.210       .  T
C973        C974   1.198       .  T
C975        C976   1.212       .  T
C977        C978   1.204       .  T
C979        C980   1.208       .  T
C981        C982   1.210       .  T
C983        C984   1.195       .  T
C985        C986   1.512       .  S
C985        C991   1.512       .  S
C985        C989   1.531       .  S
C985       C1476   1.447   1_554  S
C986        C987   1.360       .  D
C986       H1321   1.088       .  S
C987        C988   1.559       .  S
C987       C1105   1.470       .  S
C988        C992   1.558       .  S
C988        C990   1.550       .  S
C988        H994   1.111       .  S
C989        C990   1.366       .  D
C989        H995   1.087       .  S
C990       C1146   1.449       .  S
C991        C992   1.359       .  D
C991       H1324   1.089   1_554  S
C992       C1025   1.475       .  S
H993       C1150   1.088       .  S
H996       C1155   1.089       .  S
C997       C1326   1.535   1_554  S
C997       C1003   1.516       .  S
C997       C1329   1.522   1_554  S
C997       C1141   1.465       .  S
C998       C1161   1.535       .  S
C998        C999   1.367       .  D
C998       H1005   1.086       .  S
C999       C1000   1.542       .  S
C999       C1143   1.446       .  S
C1000      C1004   1.548       .  S
C1000      C1002   1.556       .  S
C1000      H1006   1.111       .  S
C1001      C1161   1.522       .  S
C1001      C1002   1.366       .  D
C1001      H1171   1.087       .  S
C1002      C1126   1.476       .  S
C1003      C1332   1.363   1_554  D
C1003      H1008   1.088       .  S
C1004      C1167   1.363       .  D
C1004      C1031   1.474       .  S
H1007      C1329   1.087   1_554  S
C1009      C1010   1.528       .  S
C1009      C1015   1.504       .  S
C1009      C1013   1.521       .  S
C1009      C1301   1.450       .  S
C1010      C1011   1.366       .  D
C1010      H1017   1.087       .  S
C1011      C1012   1.554       .  S
C1011      C1139   1.451       .  S
C1012      C1016   1.568       .  S
C1012      C1014   1.560       .  S
C1012      H1018   1.110       .  S
C1013      C1014   1.367       .  D
C1013      H1019   1.087       .  S
C1014      C1130   1.480       .  S
C1015      C1016   1.355       .  D
C1015      H1184   1.090       .  S
C1016      C1027   1.488       .  S
H1020      C1343   1.089   1_554  S
In1021     O1187   2.167       .  S
In1021     O1024   2.270       .  S
In1021     O1032   2.173       .  S
In1021     O1190   2.271       .  S
In1021     O1192   2.291       .  S
In1021     O1029   2.300       .  S
In1021     O1030   2.167       .  S
In1021     O1197   2.170       .  S
C1022      C1053   1.486       .  S
C1022      O1028   1.272       .  A
C1022      O1358   1.268   1_554  A
O1023     In1349   2.167   1_554  S
O1023      C1359   1.266   1_554  A
O1024      C1031   1.274       .  A
C1025      O1360   1.268   1_554  A
C1025      O1026   1.273       .  A
O1026     In1349   2.271   1_554  S
C1027      O1029   1.272       .  A
C1027      O1197   1.269       .  A
O1028     In1349   2.291   1_554  S
O1030      C1186   1.268       .  A
C1031      O1187   1.266       .  A
O1032      C1189   1.268       .  A
O1033     In1349   2.170   1_554  S
O1033      C1355   1.269   1_554  A
C1034      C1035   1.537       .  S
C1034      C1040   1.521       .  S
C1034      C1038   1.538       .  S
C1034      C1144   1.471       .  S
C1035      C1036   1.366       .  D
C1035      H1042   1.087       .  S
C1036      C1037   1.530       .  S
C1036      C1142   1.439       .  S
C1037      C1041   1.539       .  S
C1037      C1039   1.548       .  S
C1037      H1043   1.111       .  S
C1038      C1039   1.374       .  D
C1038      H1044   1.086       .  S
C1039      C1099   1.481       .  S
C1040      C1041   1.358       .  D
C1040      H1045   1.088       .  S
C1041      C1071   1.466       .  S
C1046      C1211   1.533       .  S
C1046      C1052   1.508       .  S
C1046      C1214   1.536       .  S
C1046      C1135   1.471       .  S
C1047      C1374   1.533       .  S
C1047      C1048   1.374   1_556  D
C1047      H1382   1.086       .  S
C1048      C1049   1.558       .  S
C1048      C1101   1.489       .  S
C1049      C1053   1.559       .  S
C1049      C1051   1.541       .  S
C1049      H1055   1.111       .  S
C1050      C1374   1.536   1_554  S
C1050      C1051   1.368       .  D
C1050      H1056   1.086       .  S
C1051      C1133   1.447       .  S
C1052      C1217   1.356       .  D
C1052      H1057   1.089       .  S
C1053      C1380   1.356   1_554  D
H1054      C1211   1.086       .  S
C1058      C1059   1.528       .  S
C1058      C1064   1.527       .  S
C1058      C1062   1.542       .  S
C1058      C1134   1.474       .  S
C1059      C1060   1.365       .  D
C1059      H1066   1.087       .  S
C1060      C1061   1.552       .  S
C1060      C1124   1.477       .  S
C1061      C1065   1.537       .  S
C1061      C1063   1.532       .  S
C1061      H1067   1.111       .  S
C1062      C1063   1.370       .  D
C1062      H1068   1.086       .  S
C1063      C1136   1.448       .  S
C1064      C1065   1.366       .  D
C1064      H1069   1.087       .  S
C1065      C1080   1.471       .  S
In1070     O1072   2.187       .  S
In1070     O1073   2.244       .  S
In1070     O1569   2.243       .  S
In1070     O1570   2.195   1_655  S
In1070     O1571   2.186       .  S
C1071      O1077   1.272       .  A
C1071      O1079   1.266       .  A
O1072      C1080   1.265       .  A
O1073      C1080   1.273       .  A
C1074      C1088   1.464       .  S
C1074      O1081   1.264       .  A
C1074      O1075   1.274       .  A
C1076      C1110   1.465       .  S
C1076      O1082   1.267       .  A
O1077     In1562   2.243       .  S
O1078     In1562   2.195   1_455  S
O1079     In1562   2.186       .  S
C1083      C1084   1.538       .  S
C1083      C1089   1.521       .  S
C1083      C1087   1.510       .  S
C1083      C1138   1.454       .  S
C1084      C1085   1.366       .  D
C1084      H1091   1.086       .  S
C1085      C1086   1.544       .  S
C1085      C1140   1.452       .  S
C1086      C1090   1.549       .  S
C1086      C1088   1.556       .  S
C1086      H1092   1.111       .  S
C1087      C1088   1.357       .  D
C1087      H1093   1.088       .  S
C1089      C1090   1.366       .  D
C1089      H1094   1.087       .  S
C1090      C1096   1.477       .  S
In1095     O1097   2.261       .  S
In1095     O1098   2.228       .  S
In1095     O1106   2.232       .  S
In1095     O1100   2.264       .  S
In1095     O1594   2.290   1_545  S
In1095     O1595   2.251   1_545  S
In1095     O1596   2.194   1_545  S
In1095     O1599   2.267   1_545  S
C1096      O1102   1.270       .  A
C1096      O1104   1.259       .  A
O1097      C1105   1.259       .  A
O1098      C1105   1.265       .  A
C1099      O1106   1.261       .  A
C1099      O1100   1.267       .  A
C1101      O1103   1.266       .  A
C1101      O1107   1.266       .  A
O1102     In1587   2.290       .  S
O1103     In1587   2.251       .  S
O1104     In1587   2.194       .  S
O1107     In1587   2.267       .  S
C1108      C1109   1.514       .  S
C1108      C1114   1.513       .  S
C1108      C1112   1.535       .  S
C1108      C1147   1.448       .  S
C1109      C1110   1.361       .  D
C1109      H1116   1.087       .  S
C1110      C1111   1.554       .  S
C1111      C1115   1.552       .  S
C1111      C1113   1.546       .  S
C1111      H1117   1.111       .  S
C1112      C1113   1.366       .  D
C1112      H1118   1.087       .  S
C1113      C1145   1.449       .  S
C1114      C1115   1.361       .  D
C1114      H1119   1.088       .  S
C1115      C1121   1.479       .  S
In1120     O1131   2.232       .  S
In1120     O1125   2.253       .  S
In1120     O1127   2.304   1_655  S
In1120     O1128   2.232       .  S
In1120     O1132   2.267       .  S
C1121      O1129   1.258       .  A
O1122      C1130   1.264       .  A
O1123      C1130   1.265       .  A
C1124      O1131   1.259       .  A
C1124      O1125   1.270       .  A
C1126      O1128   1.264       .  A
C1126      O1132   1.262       .  A
C1133      C1134   1.210       .  T
C1135      C1136   1.210       .  T
C1137      C1337   1.450   1_554  S
C1137      C1138   1.198       .  T
C1139      C1140   1.212       .  T
C1141      C1142   1.204       .  T
C1143      C1144   1.208       .  T
C1145      C1146   1.210       .  T
C1147      C1148   1.195       .  T
C1148      C1149   1.447       .  S
C1149      C1150   1.512       .  S
C1149      C1155   1.512       .  S
C1149      C1153   1.531       .  S
C1150      C1151   1.360       .  D
C1151      C1152   1.559       .  S
C1151      C1269   1.470       .  S
C1152      C1156   1.558       .  S
C1152      C1154   1.550       .  S
C1152      H1158   1.111       .  S
C1153      C1154   1.366       .  D
C1153      H1159   1.087       .  S
C1154      C1310   1.449       .  S
C1155      C1156   1.359       .  D
C1156      C1189   1.475       .  S
H1157      C1314   1.088       .  S
H1160      C1319   1.089       .  S
C1161      C1167   1.516       .  S
C1161      C1305   1.465       .  S
C1162      C1325   1.535       .  S
C1162      C1163   1.367       .  D
C1162      H1169   1.086       .  S
C1163      C1164   1.542       .  S
C1163      C1307   1.446       .  S
C1164      C1168   1.548       .  S
C1164      C1166   1.556       .  S
C1164      H1170   1.111       .  S
C1165      C1325   1.522       .  S
C1165      C1166   1.366       .  D
C1165      H1335   1.087       .  S
C1166      C1290   1.476       .  S
C1167      H1172   1.088       .  S
C1168      C1331   1.363       .  D
C1168      C1195   1.474       .  S
C1173      C1174   1.528       .  S
C1173      C1179   1.504       .  S
C1173      C1177   1.521       .  S
C1173      C1465   1.450       .  S
C1174      C1175   1.366       .  D
C1174      H1181   1.087       .  S
C1175      C1176   1.554       .  S
C1175      C1303   1.451       .  S
C1176      C1180   1.568       .  S
C1176      C1178   1.560       .  S
C1176      H1182   1.110       .  S
C1177      C1178   1.367       .  D
C1177      H1183   1.087       .  S
C1178      C1294   1.480       .  S
C1179      C1180   1.355       .  D
C1179      H1348   1.089       .  S
C1180      C1191   1.488       .  S
In1185     O1351   2.167       .  S
In1185     O1188   2.270       .  S
In1185     O1196   2.173       .  S
In1185     O1354   2.271       .  S
In1185     O1356   2.291       .  S
In1185     O1193   2.300       .  S
In1185     O1194   2.167       .  S
In1185     O1361   2.170       .  S
C1186      C1217   1.486       .  S
C1186      O1192   1.272       .  A
O1188      C1195   1.274       .  A
C1189      O1190   1.273       .  A
C1191      O1193   1.272       .  A
C1191      O1361   1.269       .  A
O1194      C1350   1.268       .  A
C1195      O1351   1.266       .  A
O1196      C1353   1.268       .  A
C1198      C1199   1.537       .  S
C1198      C1204   1.521       .  S
C1198      C1202   1.538       .  S
C1198      C1308   1.471       .  S
C1199      C1200   1.366       .  D
C1199      H1206   1.087       .  S
C1200      C1201   1.530       .  S
C1200      C1306   1.439       .  S
C1201      C1205   1.539       .  S
C1201      C1203   1.548       .  S
C1201      H1207   1.111       .  S
C1202      C1203   1.374       .  D
C1202      H1208   1.086       .  S
C1203      C1263   1.481       .  S
C1204      C1205   1.358       .  D
C1204      H1209   1.088       .  S
C1205      C1235   1.466       .  S
C1210      C1375   1.533       .  S
C1210      C1216   1.508       .  S
C1210      C1378   1.536       .  S
C1210      C1299   1.471       .  S
C1211      C1212   1.374       .  D
C1212      C1213   1.558       .  S
C1212      C1265   1.489       .  S
C1213      C1217   1.559       .  S
C1213      C1215   1.541       .  S
C1213      H1219   1.111       .  S
C1214      C1215   1.368       .  D
C1214      H1220   1.086       .  S
C1215      C1297   1.447       .  S
C1216      C1381   1.356       .  D
C1216      H1221   1.089       .  S
H1218      C1375   1.086       .  S
C1222      C1223   1.528       .  S
C1222      C1228   1.527       .  S
C1222      C1226   1.542       .  S
C1222      C1298   1.474       .  S
C1223      C1224   1.365       .  D
C1223      H1230   1.087       .  S
C1224      C1225   1.552       .  S
C1224      C1288   1.477       .  S
C1225      C1229   1.537       .  S
C1225      C1227   1.532       .  S
C1225      H1231   1.111       .  S
C1226      C1227   1.370       .  D
C1226      H1232   1.086       .  S
C1227      C1300   1.448       .  S
C1228      C1229   1.366       .  D
C1228      H1233   1.087       .  S
C1229      C1244   1.471       .  S
In1234     O1236   2.187       .  S
In1234     O1237   2.244       .  S
In1234     O1733   2.243       .  S
In1234     O1734   2.195   1_655  S
In1234     O1735   2.186       .  S
C1235      O1241   1.272       .  A
C1235      O1243   1.266       .  A
O1236      C1244   1.265       .  A
O1237      C1244   1.273       .  A
C1238      C1252   1.464       .  S
C1238      O1245   1.264       .  A
C1238      O1239   1.274       .  A
C1240      C1274   1.465       .  S
C1240      O1246   1.267       .  A
O1241     In1726   2.243       .  S
O1242     In1726   2.195   1_455  S
O1243     In1726   2.186       .  S
C1247      C1248   1.538       .  S
C1247      C1253   1.521       .  S
C1247      C1251   1.510       .  S
C1247      C1302   1.454       .  S
C1248      C1249   1.366       .  D
C1248      H1255   1.086       .  S
C1249      C1250   1.544       .  S
C1249      C1304   1.452       .  S
C1250      C1254   1.549       .  S
C1250      C1252   1.556       .  S
C1250      H1256   1.111       .  S
C1251      C1252   1.357       .  D
C1251      H1257   1.088       .  S
C1253      C1254   1.366       .  D
C1253      H1258   1.087       .  S
C1254      C1260   1.477       .  S
In1259     O1261   2.261       .  S
In1259     O1262   2.228       .  S
In1259     O1270   2.232       .  S
In1259     O1264   2.264       .  S
In1259     O1758   2.290   1_545  S
In1259     O1759   2.251   1_545  S
In1259     O1760   2.194   1_545  S
In1259     O1763   2.267   1_545  S
C1260      O1266   1.270       .  A
C1260      O1268   1.259       .  A
O1261      C1269   1.259       .  A
O1262      C1269   1.265       .  A
C1263      O1270   1.261       .  A
C1263      O1264   1.267       .  A
C1265      O1267   1.266       .  A
C1265      O1271   1.266       .  A
O1266     In1751   2.290       .  S
O1267     In1751   2.251       .  S
O1268     In1751   2.194       .  S
O1271     In1751   2.267       .  S
C1272      C1273   1.514       .  S
C1272      C1278   1.513       .  S
C1272      C1276   1.535       .  S
C1272      C1311   1.448       .  S
C1273      C1274   1.361       .  D
C1273      H1280   1.087       .  S
C1274      C1275   1.554       .  S
C1275      C1279   1.552       .  S
C1275      C1277   1.546       .  S
C1275      H1281   1.111       .  S
C1276      C1277   1.366       .  D
C1276      H1282   1.087       .  S
C1277      C1309   1.449       .  S
C1278      C1279   1.361       .  D
C1278      H1283   1.088       .  S
C1279      C1285   1.479       .  S
In1284     O1295   2.232       .  S
In1284     O1289   2.253       .  S
In1284     O1291   2.304   1_655  S
In1284     O1292   2.232       .  S
In1284     O1296   2.267       .  S
C1285      O1293   1.258       .  A
O1286      C1294   1.264       .  A
O1287      C1294   1.265       .  A
C1288      O1295   1.259       .  A
C1288      O1289   1.270       .  A
C1290      O1292   1.264       .  A
C1290      O1296   1.262       .  A
C1297      C1298   1.210       .  T
C1299      C1300   1.210       .  T
C1301      C1302   1.198       .  T
C1303      C1304   1.212       .  T
C1305      C1306   1.204       .  T
C1307      C1308   1.208       .  T
C1309      C1310   1.210       .  T
C1311      C1312   1.195       .  T
C1312      C1313   1.447       .  S
C1313      C1314   1.512       .  S
C1313      C1319   1.512       .  S
C1313      C1317   1.531       .  S
C1314      C1315   1.360       .  D
C1315      C1316   1.559       .  S
C1315      C1433   1.470       .  S
C1316      C1320   1.558       .  S
C1316      C1318   1.550       .  S
C1316      H1322   1.111       .  S
C1317      C1318   1.366       .  D
C1317      H1323   1.087       .  S
C1318      C1474   1.449       .  S
C1319      C1320   1.359       .  D
C1320      C1353   1.475       .  S
C1325      C1331   1.516       .  S
C1325      C1469   1.465       .  S
C1326      C1327   1.367       .  D
C1326      H1333   1.086       .  S
C1327      C1328   1.542       .  S
C1327      C1471   1.446       .  S
C1328      C1332   1.548       .  S
C1328      C1330   1.556       .  S
C1328      H1334   1.111       .  S
C1329      C1330   1.366       .  D
C1330      C1454   1.476       .  S
C1331      H1336   1.088       .  S
C1332      C1359   1.474       .  S
C1337      C1338   1.528       .  S
C1337      C1343   1.504       .  S
C1337      C1341   1.521       .  S
C1338      C1339   1.366       .  D
C1338      H1345   1.087       .  S
C1339      C1340   1.554       .  S
C1339      C1467   1.451       .  S
C1340      C1344   1.568       .  S
C1340      C1342   1.560       .  S
C1340      H1346   1.110       .  S
C1341      C1342   1.367       .  D
C1341      H1347   1.087       .  S
C1342      C1458   1.480       .  S
C1343      C1344   1.355       .  D
C1344      C1355   1.488       .  S
In1349     O1352   2.270       .  S
In1349     O1360   2.173       .  S
In1349     O1357   2.300       .  S
In1349     O1358   2.167       .  S
C1350      C1381   1.486       .  S
C1350      O1356   1.272       .  A
O1352      C1359   1.274       .  A
C1353      O1354   1.273       .  A
C1355      O1357   1.272       .  A
C1362      C1363   1.537       .  S
C1362      C1368   1.521       .  S
C1362      C1366   1.538       .  S
C1362      C1472   1.471       .  S
C1363      C1364   1.366       .  D
C1363      H1370   1.087       .  S
C1364      C1365   1.530       .  S
C1364      C1470   1.439       .  S
C1365      C1369   1.539       .  S
C1365      C1367   1.548       .  S
C1365      H1371   1.111       .  S
C1366      C1367   1.374       .  D
C1366      H1372   1.086       .  S
C1367      C1427   1.481       .  S
C1368      C1369   1.358       .  D
C1368      H1373   1.088       .  S
C1369      C1399   1.466       .  S
C1374      C1380   1.508       .  S
C1374      C1463   1.471       .  S
C1375      C1376   1.374       .  D
C1376      C1377   1.558       .  S
C1376      C1429   1.489       .  S
C1377      C1381   1.559       .  S
C1377      C1379   1.541       .  S
C1377      H1383   1.111       .  S
C1378      C1379   1.368       .  D
C1378      H1384   1.086       .  S
C1379      C1461   1.447       .  S
C1380      H1385   1.089       .  S
C1386      C1387   1.528       .  S
C1386      C1392   1.527       .  S
C1386      C1390   1.542       .  S
C1386      C1462   1.474       .  S
C1387      C1388   1.365       .  D
C1387      H1394   1.087       .  S
C1388      C1389   1.552       .  S
C1388      C1452   1.477       .  S
C1389      C1393   1.537       .  S
C1389      C1391   1.532       .  S
C1389      H1395   1.111       .  S
C1390      C1391   1.370       .  D
C1390      H1396   1.086       .  S
C1391      C1464   1.448       .  S
C1392      C1393   1.366       .  D
C1392      H1397   1.087       .  S
C1393      C1408   1.471       .  S
In1398     O1400   2.187       .  S
In1398     O1401   2.244       .  S
In1398     O1897   2.243       .  S
In1398     O1898   2.195   1_655  S
In1398     O1899   2.186       .  S
C1399      O1405   1.272       .  A
C1399      O1407   1.266       .  A
O1400      C1408   1.265       .  A
O1401      C1408   1.273       .  A
C1402      C1416   1.464       .  S
C1402      O1409   1.264       .  A
C1402      O1403   1.274       .  A
C1404      C1438   1.465       .  S
C1404      O1410   1.267       .  A
O1405     In1890   2.243       .  S
O1406     In1890   2.195   1_455  S
O1407     In1890   2.186       .  S
C1411      C1412   1.538       .  S
C1411      C1417   1.521       .  S
C1411      C1415   1.510       .  S
C1411      C1466   1.454       .  S
C1412      C1413   1.366       .  D
C1412      H1419   1.086       .  S
C1413      C1414   1.544       .  S
C1413      C1468   1.452       .  S
C1414      C1418   1.549       .  S
C1414      C1416   1.556       .  S
C1414      H1420   1.111       .  S
C1415      C1416   1.357       .  D
C1415      H1421   1.088       .  S
C1417      C1418   1.366       .  D
C1417      H1422   1.087       .  S
C1418      C1424   1.477       .  S
In1423     O1425   2.261       .  S
In1423     O1426   2.228       .  S
In1423     O1434   2.232       .  S
In1423     O1428   2.264       .  S
In1423     O1922   2.290   1_545  S
In1423     O1923   2.251   1_545  S
In1423     O1924   2.194   1_545  S
In1423     O1927   2.267   1_545  S
C1424      O1430   1.270       .  A
C1424      O1432   1.259       .  A
O1425      C1433   1.259       .  A
O1426      C1433   1.265       .  A
C1427      O1434   1.261       .  A
C1427      O1428   1.267       .  A
C1429      O1431   1.266       .  A
C1429      O1435   1.266       .  A
O1430     In1915   2.290       .  S
O1431     In1915   2.251       .  S
O1432     In1915   2.194       .  S
O1435     In1915   2.267       .  S
C1436      C1437   1.514       .  S
C1436      C1442   1.513       .  S
C1436      C1440   1.535       .  S
C1436      C1475   1.448       .  S
C1437      C1438   1.361       .  D
C1437      H1444   1.087       .  S
C1438      C1439   1.554       .  S
C1439      C1443   1.552       .  S
C1439      C1441   1.546       .  S
C1439      H1445   1.111       .  S
C1440      C1441   1.366       .  D
C1440      H1446   1.087       .  S
C1441      C1473   1.449       .  S
C1442      C1443   1.361       .  D
C1442      H1447   1.088       .  S
C1443      C1449   1.479       .  S
In1448     O1459   2.232       .  S
In1448     O1453   2.253       .  S
In1448     O1455   2.304   1_655  S
In1448     O1456   2.232       .  S
In1448     O1460   2.267       .  S
C1449      O1457   1.258       .  A
O1450      C1458   1.264       .  A
O1451      C1458   1.265       .  A
C1452      O1459   1.259       .  A
C1452      O1453   1.270       .  A
C1454      O1456   1.264       .  A
C1454      O1460   1.261       .  A
C1461      C1462   1.210       .  T
C1463      C1464   1.210       .  T
C1465      C1466   1.198       .  T
C1467      C1468   1.212       .  T
C1469      C1470   1.204       .  T
C1471      C1472   1.208       .  T
C1473      C1474   1.210       .  T
C1475      C1476   1.195       .  T
C1477      C1478   1.512       .  S
C1477      C1483   1.512       .  S
C1477      C1481   1.531       .  S
C1477      C1968   1.447   1_554  S
C1478      C1479   1.360       .  D
C1478      H1813   1.088       .  S
C1479      C1480   1.559       .  S
C1479      C1597   1.470       .  S
C1480      C1484   1.558       .  S
C1480      C1482   1.550       .  S
C1480      H1486   1.111       .  S
C1481      C1482   1.366       .  D
C1481      H1487   1.087       .  S
C1482      C1638   1.449       .  S
C1483      C1484   1.359       .  D
C1483      H1816   1.089   1_554  S
C1484      C1517   1.475       .  S
H1485      C1642   1.088       .  S
H1488      C1647   1.089       .  S
C1489      C1818   1.535   1_554  S
C1489      C1495   1.516       .  S
C1489      C1821   1.522   1_554  S
C1489      C1633   1.465       .  S
C1490      C1653   1.535       .  S
C1490      C1491   1.367       .  D
C1490      H1497   1.086       .  S
C1491      C1492   1.542       .  S
C1491      C1635   1.446       .  S
C1492      C1496   1.548       .  S
C1492      C1494   1.556       .  S
C1492      H1498   1.111       .  S
C1493      C1653   1.522       .  S
C1493      C1494   1.366       .  D
C1493      H1663   1.087       .  S
C1494      C1618   1.476       .  S
C1495      C1824   1.363   1_554  D
C1495      H1500   1.088       .  S
C1496      C1659   1.363       .  D
C1496      C1523   1.474       .  S
H1499      C1821   1.087   1_554  S
C1501      C1502   1.528       .  S
C1501      C1507   1.504       .  S
C1501      C1505   1.521       .  S
C1501      C1793   1.450       .  S
C1502      C1503   1.366       .  D
C1502      H1509   1.087       .  S
C1503      C1504   1.554       .  S
C1503      C1631   1.451       .  S
C1504      C1508   1.568       .  S
C1504      C1506   1.560       .  S
C1504      H1510   1.110       .  S
C1505      C1506   1.367       .  D
C1505      H1511   1.087       .  S
C1506      C1622   1.480       .  S
C1507      C1508   1.355       .  D
C1507      H1676   1.090       .  S
C1508      C1519   1.488       .  S
H1512      C1835   1.089   1_554  S
In1513     O1679   2.167       .  S
In1513     O1516   2.270       .  S
In1513     O1524   2.173       .  S
In1513     O1682   2.271       .  S
In1513     O1684   2.291       .  S
In1513     O1521   2.300       .  S
In1513     O1522   2.167       .  S
In1513     O1689   2.170       .  S
C1514      C1545   1.486       .  S
C1514      O1520   1.272       .  A
C1514      O1850   1.268   1_554  A
O1515     In1841   2.167   1_554  S
O1515      C1851   1.266   1_554  A
O1516      C1523   1.274       .  A
C1517      O1852   1.268   1_554  A
C1517      O1518   1.273       .  A
O1518     In1841   2.271   1_554  S
C1519      O1521   1.272       .  A
C1519      O1689   1.269       .  A
O1520     In1841   2.291   1_554  S
O1522      C1678   1.268       .  A
C1523      O1679   1.266       .  A
O1524      C1681   1.268       .  A
O1525     In1841   2.170   1_554  S
O1525      C1847   1.269   1_554  A
C1526      C1527   1.537       .  S
C1526      C1532   1.521       .  S
C1526      C1530   1.538       .  S
C1526      C1636   1.471       .  S
C1527      C1528   1.366       .  D
C1527      H1534   1.087       .  S
C1528      C1529   1.530       .  S
C1528      C1634   1.439       .  S
C1529      C1533   1.539       .  S
C1529      C1531   1.548       .  S
C1529      H1535   1.111       .  S
C1530      C1531   1.374       .  D
C1530      H1536   1.086       .  S
C1531      C1591   1.481       .  S
C1532      C1533   1.358       .  D
C1532      H1537   1.088       .  S
C1533      C1563   1.466       .  S
C1538      C1703   1.533       .  S
C1538      C1544   1.508       .  S
C1538      C1706   1.536       .  S
C1538      C1627   1.471       .  S
C1539      C1866   1.533       .  S
C1539      C1540   1.374   1_556  D
C1539      H1874   1.086       .  S
C1540      C1541   1.558       .  S
C1540      C1593   1.489       .  S
C1541      C1545   1.559       .  S
C1541      C1543   1.541       .  S
C1541      H1547   1.111       .  S
C1542      C1866   1.536   1_554  S
C1542      C1543   1.368       .  D
C1542      H1548   1.086       .  S
C1543      C1625   1.447       .  S
C1544      C1709   1.356       .  D
C1544      H1549   1.089       .  S
C1545      C1872   1.356   1_554  D
H1546      C1703   1.086       .  S
C1550      C1551   1.528       .  S
C1550      C1556   1.527       .  S
C1550      C1554   1.542       .  S
C1550      C1626   1.474       .  S
C1551      C1552   1.365       .  D
C1551      H1558   1.087       .  S
C1552      C1553   1.552       .  S
C1552      C1616   1.477       .  S
C1553      C1557   1.537       .  S
C1553      C1555   1.532       .  S
C1553      H1559   1.111       .  S
C1554      C1555   1.370       .  D
C1554      H1560   1.086       .  S
C1555      C1628   1.448       .  S
C1556      C1557   1.366       .  D
C1556      H1561   1.087       .  S
C1557      C1572   1.471       .  S
In1562     O1564   2.187   1_545  S
In1562     O1565   2.244   1_545  S
C1563      O1569   1.272       .  A
C1563      O1571   1.266       .  A
O1564      C1572   1.265       .  A
O1565      C1572   1.273       .  A
C1566      C1580   1.464       .  S
C1566      O1573   1.264       .  A
C1566      O1567   1.274       .  A
C1568      C1602   1.465       .  S
C1568      O1574   1.267       .  A
C1575      C1576   1.538       .  S
C1575      C1581   1.521       .  S
C1575      C1579   1.510       .  S
C1575      C1630   1.454       .  S
C1576      C1577   1.366       .  D
C1576      H1583   1.086       .  S
C1577      C1578   1.544       .  S
C1577      C1632   1.452       .  S
C1578      C1582   1.549       .  S
C1578      C1580   1.556       .  S
C1578      H1584   1.111       .  S
C1579      C1580   1.357       .  D
C1579      H1585   1.088       .  S
C1581      C1582   1.366       .  D
C1581      H1586   1.087       .  S
C1582      C1588   1.477       .  S
In1587     O1589   2.261       .  S
In1587     O1590   2.228       .  S
In1587     O1598   2.232       .  S
In1587     O1592   2.264       .  S
C1588      O1594   1.270       .  A
C1588      O1596   1.259       .  A
O1589      C1597   1.259       .  A
O1590      C1597   1.265       .  A
C1591      O1598   1.261       .  A
C1591      O1592   1.267       .  A
C1593      O1595   1.266       .  A
C1593      O1599   1.266       .  A
C1600      C1601   1.514       .  S
C1600      C1606   1.513       .  S
C1600      C1604   1.535       .  S
C1600      C1639   1.448       .  S
C1601      C1602   1.361       .  D
C1601      H1608   1.087       .  S
C1602      C1603   1.554       .  S
C1603      C1607   1.552       .  S
C1603      C1605   1.546       .  S
C1603      H1609   1.111       .  S
C1604      C1605   1.366       .  D
C1604      H1610   1.087       .  S
C1605      C1637   1.449       .  S
C1606      C1607   1.361       .  D
C1606      H1611   1.088       .  S
C1607      C1613   1.479       .  S
In1612     O1623   2.232       .  S
In1612     O1617   2.253       .  S
In1612     O1619   2.304   1_655  S
In1612     O1620   2.232       .  S
In1612     O1624   2.267       .  S
C1613      O1621   1.258       .  A
O1614      C1622   1.264       .  A
O1615      C1622   1.265       .  A
C1616      O1623   1.259       .  A
C1616      O1617   1.270       .  A
C1618      O1620   1.264       .  A
C1618      O1624   1.262       .  A
C1625      C1626   1.210       .  T
C1627      C1628   1.210       .  T
C1629      C1829   1.450   1_554  S
C1629      C1630   1.198       .  T
C1631      C1632   1.212       .  T
C1633      C1634   1.204       .  T
C1635      C1636   1.208       .  T
C1637      C1638   1.210       .  T
C1639      C1640   1.195       .  T
C1640      C1641   1.447       .  S
C1641      C1642   1.512       .  S
C1641      C1647   1.512       .  S
C1641      C1645   1.531       .  S
C1642      C1643   1.360       .  D
C1643      C1644   1.559       .  S
C1643      C1761   1.470       .  S
C1644      C1648   1.558       .  S
C1644      C1646   1.550       .  S
C1644      H1650   1.111       .  S
C1645      C1646   1.366       .  D
C1645      H1651   1.087       .  S
C1646      C1802   1.449       .  S
C1647      C1648   1.359       .  D
C1648      C1681   1.475       .  S
H1649      C1806   1.088       .  S
H1652      C1811   1.089       .  S
C1653      C1659   1.516       .  S
C1653      C1797   1.465       .  S
C1654      C1817   1.535       .  S
C1654      C1655   1.367       .  D
C1654      H1661   1.086       .  S
C1655      C1656   1.542       .  S
C1655      C1799   1.446       .  S
C1656      C1660   1.548       .  S
C1656      C1658   1.556       .  S
C1656      H1662   1.111       .  S
C1657      C1817   1.522       .  S
C1657      C1658   1.366       .  D
C1657      H1827   1.087       .  S
C1658      C1782   1.476       .  S
C1659      H1664   1.088       .  S
C1660      C1823   1.363       .  D
C1660      C1687   1.474       .  S
C1665      C1666   1.528       .  S
C1665      C1671   1.504       .  S
C1665      C1669   1.521       .  S
C1665      C1957   1.450       .  S
C1666      C1667   1.366       .  D
C1666      H1673   1.087       .  S
C1667      C1668   1.554       .  S
C1667      C1795   1.451       .  S
C1668      C1672   1.568       .  S
C1668      C1670   1.560       .  S
C1668      H1674   1.110       .  S
C1669      C1670   1.367       .  D
C1669      H1675   1.087       .  S
C1670      C1786   1.480       .  S
C1671      C1672   1.355       .  D
C1671      H1840   1.089       .  S
C1672      C1683   1.488       .  S
In1677     O1843   2.167       .  S
In1677     O1680   2.270       .  S
In1677     O1688   2.173       .  S
In1677     O1846   2.271       .  S
In1677     O1848   2.291       .  S
In1677     O1685   2.300       .  S
In1677     O1686   2.167       .  S
In1677     O1853   2.170       .  S
C1678      C1709   1.486       .  S
C1678      O1684   1.272       .  A
O1680      C1687   1.274       .  A
C1681      O1682   1.273       .  A
C1683      O1685   1.272       .  A
C1683      O1853   1.269       .  A
O1686      C1842   1.268       .  A
C1687      O1843   1.266       .  A
O1688      C1845   1.268       .  A
C1690      C1691   1.537       .  S
C1690      C1696   1.521       .  S
C1690      C1694   1.538       .  S
C1690      C1800   1.471       .  S
C1691      C1692   1.366       .  D
C1691      H1698   1.087       .  S
C1692      C1693   1.530       .  S
C1692      C1798   1.439       .  S
C1693      C1697   1.539       .  S
C1693      C1695   1.548       .  S
C1693      H1699   1.111       .  S
C1694      C1695   1.374       .  D
C1694      H1700   1.086       .  S
C1695      C1755   1.481       .  S
C1696      C1697   1.358       .  D
C1696      H1701   1.088       .  S
C1697      C1727   1.466       .  S
C1702      C1867   1.533       .  S
C1702      C1708   1.508       .  S
C1702      C1870   1.536       .  S
C1702      C1791   1.471       .  S
C1703      C1704   1.374       .  D
C1704      C1705   1.558       .  S
C1704      C1757   1.489       .  S
C1705      C1709   1.559       .  S
C1705      C1707   1.541       .  S
C1705      H1711   1.111       .  S
C1706      C1707   1.368       .  D
C1706      H1712   1.086       .  S
C1707      C1789   1.447       .  S
C1708      C1873   1.356       .  D
C1708      H1713   1.089       .  S
H1710      C1867   1.086       .  S
C1714      C1715   1.528       .  S
C1714      C1720   1.527       .  S
C1714      C1718   1.542       .  S
C1714      C1790   1.474       .  S
C1715      C1716   1.365       .  D
C1715      H1722   1.087       .  S
C1716      C1717   1.552       .  S
C1716      C1780   1.477       .  S
C1717      C1721   1.537       .  S
C1717      C1719   1.532       .  S
C1717      H1723   1.111       .  S
C1718      C1719   1.370       .  D
C1718      H1724   1.086       .  S
C1719      C1792   1.448       .  S
C1720      C1721   1.366       .  D
C1720      H1725   1.087       .  S
C1721      C1736   1.471       .  S
In1726     O1728   2.187   1_545  S
In1726     O1729   2.244   1_545  S
C1727      O1733   1.272       .  A
C1727      O1735   1.266       .  A
O1728      C1736   1.265       .  A
O1729      C1736   1.273       .  A
C1730      C1744   1.464       .  S
C1730      O1737   1.264       .  A
C1730      O1731   1.274       .  A
C1732      C1766   1.465       .  S
C1732      O1738   1.267       .  A
C1739      C1740   1.538       .  S
C1739      C1745   1.521       .  S
C1739      C1743   1.510       .  S
C1739      C1794   1.454       .  S
C1740      C1741   1.366       .  D
C1740      H1747   1.086       .  S
C1741      C1742   1.544       .  S
C1741      C1796   1.452       .  S
C1742      C1746   1.549       .  S
C1742      C1744   1.556       .  S
C1742      H1748   1.111       .  S
C1743      C1744   1.357       .  D
C1743      H1749   1.088       .  S
C1745      C1746   1.366       .  D
C1745      H1750   1.087       .  S
C1746      C1752   1.477       .  S
In1751     O1753   2.261       .  S
In1751     O1754   2.228       .  S
In1751     O1762   2.232       .  S
In1751     O1756   2.264       .  S
C1752      O1758   1.270       .  A
C1752      O1760   1.259       .  A
O1753      C1761   1.259       .  A
O1754      C1761   1.265       .  A
C1755      O1762   1.261       .  A
C1755      O1756   1.267       .  A
C1757      O1759   1.266       .  A
C1757      O1763   1.266       .  A
C1764      C1765   1.514       .  S
C1764      C1770   1.513       .  S
C1764      C1768   1.535       .  S
C1764      C1803   1.448       .  S
C1765      C1766   1.361       .  D
C1765      H1772   1.087       .  S
C1766      C1767   1.554       .  S
C1767      C1771   1.552       .  S
C1767      C1769   1.546       .  S
C1767      H1773   1.111       .  S
C1768      C1769   1.366       .  D
C1768      H1774   1.087       .  S
C1769      C1801   1.449       .  S
C1770      C1771   1.361       .  D
C1770      H1775   1.088       .  S
C1771      C1777   1.479       .  S
In1776     O1787   2.232       .  S
In1776     O1781   2.253       .  S
In1776     O1783   2.304   1_655  S
In1776     O1784   2.232       .  S
In1776     O1788   2.267       .  S
C1777      O1785   1.258       .  A
O1778      C1786   1.264       .  A
O1779      C1786   1.265       .  A
C1780      O1787   1.259       .  A
C1780      O1781   1.270       .  A
C1782      O1784   1.264       .  A
C1782      O1788   1.262       .  A
C1789      C1790   1.210       .  T
C1791      C1792   1.210       .  T
C1793      C1794   1.198       .  T
C1795      C1796   1.212       .  T
C1797      C1798   1.204       .  T
C1799      C1800   1.208       .  T
C1801      C1802   1.210       .  T
C1803      C1804   1.195       .  T
C1804      C1805   1.447       .  S
C1805      C1806   1.512       .  S
C1805      C1811   1.512       .  S
C1805      C1809   1.531       .  S
C1806      C1807   1.360       .  D
C1807      C1808   1.559       .  S
C1807      C1925   1.470       .  S
C1808      C1812   1.558       .  S
C1808      C1810   1.550       .  S
C1808      H1814   1.111       .  S
C1809      C1810   1.366       .  D
C1809      H1815   1.087       .  S
C1810      C1966   1.449       .  S
C1811      C1812   1.359       .  D
C1812      C1845   1.475       .  S
C1817      C1823   1.516       .  S
C1817      C1961   1.465       .  S
C1818      C1819   1.367       .  D
C1818      H1825   1.086       .  S
C1819      C1820   1.542       .  S
C1819      C1963   1.446       .  S
C1820      C1824   1.548       .  S
C1820      C1822   1.556       .  S
C1820      H1826   1.111       .  S
C1821      C1822   1.366       .  D
C1822      C1946   1.476       .  S
C1823      H1828   1.088       .  S
C1824      C1851   1.474       .  S
C1829      C1830   1.528       .  S
C1829      C1835   1.504       .  S
C1829      C1833   1.521       .  S
C1830      C1831   1.366       .  D
C1830      H1837   1.087       .  S
C1831      C1832   1.554       .  S
C1831      C1959   1.451       .  S
C1832      C1836   1.568       .  S
C1832      C1834   1.560       .  S
C1832      H1838   1.110       .  S
C1833      C1834   1.367       .  D
C1833      H1839   1.087       .  S
C1834      C1950   1.480       .  S
C1835      C1836   1.355       .  D
C1836      C1847   1.488       .  S
In1841     O1844   2.270       .  S
In1841     O1852   2.173       .  S
In1841     O1849   2.300       .  S
In1841     O1850   2.167       .  S
C1842      C1873   1.486       .  S
C1842      O1848   1.272       .  A
O1844      C1851   1.274       .  A
C1845      O1846   1.273       .  A
C1847      O1849   1.272       .  A
C1854      C1855   1.537       .  S
C1854      C1860   1.521       .  S
C1854      C1858   1.538       .  S
C1854      C1964   1.471       .  S
C1855      C1856   1.366       .  D
C1855      H1862   1.087       .  S
C1856      C1857   1.530       .  S
C1856      C1962   1.439       .  S
C1857      C1861   1.539       .  S
C1857      C1859   1.548       .  S
C1857      H1863   1.111       .  S
C1858      C1859   1.374       .  D
C1858      H1864   1.086       .  S
C1859      C1919   1.481       .  S
C1860      C1861   1.358       .  D
C1860      H1865   1.088       .  S
C1861      C1891   1.466       .  S
C1866      C1872   1.508       .  S
C1866      C1955   1.471       .  S
C1867      C1868   1.374       .  D
C1868      C1869   1.558       .  S
C1868      C1921   1.489       .  S
C1869      C1873   1.559       .  S
C1869      C1871   1.541       .  S
C1869      H1875   1.111       .  S
C1870      C1871   1.368       .  D
C1870      H1876   1.086       .  S
C1871      C1953   1.447       .  S
C1872      H1877   1.089       .  S
C1878      C1879   1.528       .  S
C1878      C1884   1.527       .  S
C1878      C1882   1.542       .  S
C1878      C1954   1.474       .  S
C1879      C1880   1.365       .  D
C1879      H1886   1.086       .  S
C1880      C1881   1.552       .  S
C1880      C1944   1.477       .  S
C1881      C1885   1.537       .  S
C1881      C1883   1.532       .  S
C1881      H1887   1.111       .  S
C1882      C1883   1.370       .  D
C1882      H1888   1.086       .  S
C1883      C1956   1.448       .  S
C1884      C1885   1.366       .  D
C1884      H1889   1.087       .  S
C1885      C1900   1.471       .  S
In1890     O1892   2.187   1_545  S
In1890     O1893   2.244   1_545  S
C1891      O1897   1.272       .  A
C1891      O1899   1.266       .  A
O1892      C1900   1.265       .  A
O1893      C1900   1.273       .  A
C1894      C1908   1.464       .  S
C1894      O1901   1.264       .  A
C1894      O1895   1.274       .  A
C1896      C1930   1.465       .  S
C1896      O1902   1.267       .  A
C1903      C1904   1.538       .  S
C1903      C1909   1.521       .  S
C1903      C1907   1.510       .  S
C1903      C1958   1.454       .  S
C1904      C1905   1.366       .  D
C1904      H1911   1.086       .  S
C1905      C1906   1.544       .  S
C1905      C1960   1.452       .  S
C1906      C1910   1.549       .  S
C1906      C1908   1.556       .  S
C1906      H1912   1.111       .  S
C1907      C1908   1.357       .  D
C1907      H1913   1.088       .  S
C1909      C1910   1.366       .  D
C1909      H1914   1.087       .  S
C1910      C1916   1.477       .  S
In1915     O1917   2.261       .  S
In1915     O1918   2.228       .  S
In1915     O1926   2.232       .  S
In1915     O1920   2.264       .  S
C1916      O1922   1.270       .  A
C1916      O1924   1.259       .  A
O1917      C1925   1.259       .  A
O1918      C1925   1.265       .  A
C1919      O1926   1.261       .  A
C1919      O1920   1.267       .  A
C1921      O1923   1.266       .  A
C1921      O1927   1.266       .  A
C1928      C1929   1.514       .  S
C1928      C1934   1.513       .  S
C1928      C1932   1.535       .  S
C1928      C1967   1.448       .  S
C1929      C1930   1.361       .  D
C1929      H1936   1.087       .  S
C1930      C1931   1.554       .  S
C1931      C1935   1.552       .  S
C1931      C1933   1.546       .  S
C1931      H1937   1.111       .  S
C1932      C1933   1.366       .  D
C1932      H1938   1.087       .  S
C1933      C1965   1.449       .  S
C1934      C1935   1.361       .  D
C1934      H1939   1.088       .  S
C1935      C1941   1.479       .  S
In1940     O1951   2.232       .  S
In1940     O1945   2.253       .  S
In1940     O1947   2.304   1_655  S
In1940     O1948   2.232       .  S
In1940     O1952   2.267       .  S
C1941      O1949   1.258       .  A
O1942      C1950   1.264       .  A
O1943      C1950   1.265       .  A
C1944      O1951   1.259       .  A
C1944      O1945   1.270       .  A
C1946      O1948   1.264       .  A
C1946      O1952   1.261       .  A
C1953      C1954   1.210       .  T
C1955      C1956   1.210       .  T
C1957      C1958   1.198       .  T
C1959      C1960   1.212       .  T
C1961      C1962   1.204       .  T
C1963      C1964   1.208       .  T
C1965      C1966   1.210       .  T
C1967      C1968   1.195       .  T
