geometry optimzed in LAMMPS
_audit_creation_date              2020-11-30 
_audit_creation_method            'lammps2cif' 
_symmetry_space_group_name_H-M    'P1' 
_symmetry_Int_Tables_number       1 
_symmetry_cell_setting            triclinic 
loop_ 
_symmetry_equiv_pos_as_xyz 
  x,y,z 
_cell_length_a                    40.58556689 
_cell_length_b                    41.80333998904488 
_cell_length_c                    38.08333232315844 
_cell_angle_alpha                 90.53202845694892 
_cell_angle_beta                  88.40231607227928 
_cell_angle_gamma                 118.13824880210834 
loop_ 
_atom_site_label 
_atom_site_type_symbol 
_atom_site_fract_x 
_atom_site_fract_y 
_atom_site_fract_z 
_atom_site_charge 
O1          O  0.23983032  0.20920258  0.04323837    -0.73300
O2          O  0.29999797  0.26017613  0.45704880    -0.74300
O3          O  0.30918202  0.27242491  0.03155684    -0.62900
O4          O  0.23021804  0.19777457  0.46940079    -0.71300
O5          O  0.20142138  0.23148872  0.46820988    -0.70900
O6          O  0.27884836  0.30469551  0.03043455    -0.62100
O7          O  0.27075086  0.29347769  0.45572220    -0.74600
O8          O  0.20922351  0.24130247  0.04164077    -0.73400
Cu9        Cu  0.27091540  0.23379728  0.50038227     1.04600
Cu10       Cu  0.23923353  0.26904861  0.99900354     1.04300
C11         C  0.21485277  0.21676676  0.05584060     0.92900
C12         C  0.29404236  0.28407567  0.44200632     0.92000
C13         C  0.30570954  0.30003058  0.04161121     0.84200
C14         C  0.20355499  0.20315697  0.45871378     0.90400
O15         O  0.45561536  0.20291677  0.45725528    -0.73300
O16         O  0.45735595  0.25942303  0.04396786    -0.74300
O17         O  0.46032491  0.27249863  0.46990506    -0.62900
O18         O  0.45383754  0.19036387  0.03131490    -0.71300
O19         O  0.01571105  0.21720094  0.03150987    -0.70900
O20         O  0.02199736  0.29592745  0.46834598    -0.62100
O21         O  0.01940996  0.28660366  0.04179124    -0.74600
O22         O  0.01731981  0.22670367  0.45784050    -0.73400
Cu23       Cu  0.45454866  0.23035153  0.50064118     1.04600
Cu24       Cu  0.02066317  0.25741207  0.49991866     1.04300
C25         C  0.48610225  0.20563523  0.44397374     0.92900
C26         C  0.48875324  0.28255176  0.05598352     0.92000
C27         C  0.49255128  0.29707293  0.45916677     0.84200
C28         C  0.48412521  0.19114363  0.04126134     0.90400
O29         O  0.19547378  0.47223652  0.03324707    -0.73300
O30         O  0.27565272  0.46783568  0.47130895    -0.74300
O31         O  0.26436746  0.47071321  0.04451832    -0.62900
O32         O  0.20738386  0.46884629  0.45976270    -0.71300
O33         O  0.23809009  0.02903130  0.45762104    -0.70900
O34         O  0.29454855  0.03097204  0.04320150    -0.62100
O35         O  0.30643526  0.02798906  0.46953352    -0.74600
O36         O  0.22625485  0.03235416  0.03085082    -0.73400
Cu37       Cu  0.23461413  0.46780938  0.50238420     1.04600
Cu38       Cu  0.26736057  0.03215013  0.50025632     1.04300
C39         C  0.19800186  0.50305931  0.04154063     0.92900
C40         C  0.30372795  0.49722830  0.46058932     0.92000
C41         C  0.28892608  0.50088447  0.05680343     0.84200
C42         C  0.21373664  0.49869311  0.44524562     0.90400
C43         C  0.00665639  0.45951113  0.25358328    -0.02900
C44         C  0.49729324  0.04124454  0.24753078    -0.02900
C45         C  0.04247927  0.04640226  0.25499385    -0.02900
C46         C  0.04517721  0.50426572  0.25210660    -0.02900
C47         C  0.45883639  0.99618695  0.25103548    -0.02900
C48         C  0.46216550  0.45529159  0.24753617    -0.02900
C49         C  0.37510169  0.00317095  0.20216467    -0.11200
C50         C  0.38329794  0.50018533  0.16699161     0.05900
C51         C  0.41473619  0.49622788  0.15855577    -0.10000
C52         C  0.43745733  0.49524844  0.18491432    -0.11600
C53         C  0.42977299  0.49640619  0.22176581    -0.01400
C54         C  0.39761853  0.00177116  0.22860241    -0.10500
C55         C  0.35891062  0.50080831  0.13913519     0.06000
H56         H  0.42243951  0.49479189  0.13134839     0.07900
H57         H  0.46213844  0.49411621  0.17595221     0.11300
H58         H  0.38830024  0.00601729  0.25382551     0.11600
H59         H  0.35097844  0.00666807  0.20939397     0.07900
C60         C  0.34784056  0.02797833  0.13807406    -0.11200
C61         C  0.32508425  0.02832271  0.11121965    -0.10500
C62         C  0.31205882  0.50072587  0.08586436     0.00400
C63         C  0.32264835  0.47332075  0.08739301    -0.11600
C64         C  0.34639718  0.47379459  0.11337030    -0.10000
H65         H  0.35747965  0.04931049  0.15754917     0.07900
H66         H  0.31741697  0.04985334  0.11040991     0.11600
H67         H  0.31340891  0.45206235  0.06784144     0.11300
H68         H  0.35501801  0.45300956  0.11345150     0.07900
C69         C  0.35443532  0.46035474  0.40132121    -0.11200
C70         C  0.38334493  0.49223867  0.38651014     0.05900
C71         C  0.38831496  0.02600737  0.39878176    -0.10000
C72         C  0.36316973  0.02772718  0.42377216    -0.11600
C73         C  0.33279703  0.49567209  0.43709746    -0.01400
C74         C  0.32947155  0.46203150  0.42635738    -0.10500
C75         C  0.40330398  0.49013123  0.35416152     0.06000
H76         H  0.41015450  0.05093475  0.38745278     0.07900
H77         H  0.36666834  0.05408811  0.43162128     0.11300
H78         H  0.30670095  0.43689602  0.43626619     0.11600
H79         H  0.35012576  0.43405245  0.39222047     0.07900
C80         C  0.44242954  0.00789131  0.35048291    -0.11200
C81         C  0.45939325  0.00689313  0.31802030    -0.10500
C82         C  0.43874280  0.49164477  0.28786960    -0.01400
C83         C  0.39954928  0.46992529  0.29394446    -0.11600
C84         C  0.38224961  0.46999169  0.32596104    -0.10000
H85         H  0.45964985  0.02155589  0.37260800     0.07900
H86         H  0.48835543  0.01557113  0.31564935     0.11600
H87         H  0.38158421  0.45257271  0.27408376     0.11300
H88         H  0.35208189  0.45459965  0.32842978     0.07900
C89         C  0.17142724  0.03032375  0.37527555    -0.11200
C90         C  0.14687720  0.49740508  0.35953469     0.05900
C91         C  0.14613128  0.46511085  0.37039867    -0.10000
C92         C  0.16849740  0.46551623  0.39784365    -0.11600
C93         C  0.19223919  0.49831967  0.41445794    -0.01400
C94         C  0.19405345  0.03084188  0.40236806    -0.10500
C95         C  0.12042330  0.49695548  0.33360954     0.06000
H96         H  0.12727178  0.43949850  0.35855634     0.07900
H97         H  0.16667191  0.44010891  0.40648237     0.11300
H98         H  0.21211744  0.05653703  0.41453232     0.11600
H99         H  0.17262859  0.05551689  0.36685650     0.07900
C100        C  0.09698407  0.01175111  0.34217704    -0.11200
C101        C  0.07217689  0.01188105  0.31771168    -0.10500
C102        C  0.07267478  0.50229690  0.28171603    -0.01400
C103        C  0.09193797  0.48126131  0.27688764    -0.11600
C104        C  0.11637021  0.47993372  0.30131999    -0.10000
H105        H  0.09667671  0.02189318  0.36841845     0.07900
H106        H  0.05209149  0.01907067  0.32851314     0.11600
H107        H  0.08877223  0.46527438  0.25407259     0.11300
H108        H  0.13191739  0.46544174  0.29493835     0.07900
C109        C  0.14754280  0.04096463  0.10019008    -0.11200
C110        C  0.11704824  0.50913334  0.11322819     0.05900
C111        C  0.11108586  0.47553110  0.09977889    -0.10000
C112        C  0.13660790  0.47350435  0.07547965    -0.11600
C113        C  0.16853379  0.50515864  0.06406900    -0.01400
C114        C  0.17288593  0.03903996  0.07567941    -0.10500
C115        C  0.09897906  0.51034114  0.14704504     0.06000
H116        H  0.08823369  0.45071169  0.10999270     0.07900
H117        H  0.13217994  0.44705394  0.06683299     0.11300
H118        H  0.19696775  0.06399269  0.06729417     0.11600
H119        H  0.15315690  0.06711905  0.11087423     0.07900
C120        C  0.11992476  0.01682771  0.17682164    -0.11200
C121        C  0.10407416  0.01532035  0.20988726    -0.10500
C122        C  0.06591845  0.50803633  0.21527581    -0.01400
C123        C  0.04615158  0.50312826  0.18442209    -0.11600
C124        C  0.06179900  0.50364660  0.15070533    -0.10000
H125        H  0.14889304  0.02255641  0.17463988     0.07900
H126        H  0.12377358  0.02247893  0.23062917     0.11600
H127        H  0.01779816  0.49805781  0.18721389     0.11300
H128        H  0.04486776  0.49858262  0.12778736     0.07900
C129        C  0.47469426  0.36721910  0.20136000    -0.11200
C130        C  0.50076554  0.37583860  0.17362456     0.05900
C131        C  0.03418135  0.40789101  0.17663822    -0.10000
C132        C  0.03867421  0.43279710  0.20317943    -0.11600
C133        C  0.50899990  0.42969737  0.22635227    -0.01400
C134        C  0.48036351  0.39269954  0.22790923    -0.10500
C135        C  0.49535774  0.35115692  0.14319621     0.06000
H136        H  0.05776967  0.41324394  0.15923997     0.07900
H137        H  0.06665211  0.45229986  0.20479918     0.11300
H138        H  0.46435018  0.38218694  0.25152016     0.11600
H139        H  0.45020302  0.34090263  0.20314307     0.07900
C140        C  0.47458273  0.31313035  0.14650044    -0.11200
C141        C  0.47149758  0.29062567  0.11785214    -0.10500
C142        C  0.48986546  0.30569386  0.08575528    -0.01400
C143        C  0.00988600  0.34343439  0.08209386    -0.11600
C144        C  0.01205352  0.36590102  0.11024363    -0.10000
H145        H  0.46155121  0.30059654  0.17134369     0.07900
H146        H  0.45583346  0.26145709  0.12106698     0.11600
H147        H  0.02361750  0.35554622  0.05726737     0.11300
H148        H  0.02703415  0.39495390  0.10615806     0.07900
C149        C  0.02027765  0.39414275  0.32185280    -0.11200
C150        C  0.50787587  0.40169737  0.35362863     0.05900
C151        C  0.50044437  0.43101860  0.35496847    -0.10000
C152        C  0.50284078  0.45042043  0.32413341    -0.11600
C153        C  0.50874719  0.43989398  0.29021944    -0.01400
C154        C  0.02191440  0.41327812  0.29156781    -0.10500
C155        C  0.50452464  0.37941756  0.38486615     0.06000
H156        H  0.49327256  0.43930182  0.37980304     0.07900
H157        H  0.49918721  0.47364720  0.32717145     0.11300
H158        H  0.03447156  0.40656925  0.26932306     0.11600
H159        H  0.02874937  0.37314431  0.32030756     0.07900
C160        C  0.46953114  0.35742122  0.40111080    -0.11200
C161        C  0.46546927  0.33111594  0.42602593    -0.10500
C162        C  0.49646482  0.32673249  0.43529972    -0.01400
C163        C  0.03174081  0.35027182  0.42025538    -0.11600
C164        C  0.03563756  0.37607286  0.39520395    -0.10000
H165        H  0.44508450  0.35933180  0.39319515     0.07900
H166        H  0.43797772  0.31359772  0.43725423     0.11600
H167        H  0.05629080  0.34790395  0.42682745     0.11300
H168        H  0.06281916  0.39264788  0.38289166     0.07900
C169        C  0.01646170  0.16051277  0.37291413    -0.11200
C170        C  0.48458830  0.14387283  0.35214591     0.05900
C171        C  0.45283315  0.14735494  0.36218311    -0.10000
C172        C  0.45319408  0.16730662  0.39208367    -0.11600
C173        C  0.48534348  0.18428571  0.41244985    -0.01400
C174        C  0.01694280  0.18064100  0.40248631    -0.10500
C175        C  0.48473469  0.12199481  0.32112844     0.06000
H176        H  0.42786802  0.13502964  0.34677641     0.07900
H177        H  0.42841650  0.16971766  0.39907605     0.11300
H178        H  0.04198392  0.19296798  0.41782514     0.11600
H179        H  0.04100670  0.15750937  0.36664273     0.07900
C180        C  0.01725872  0.13214561  0.30101940    -0.11200
C181        C  0.02055562  0.10775761  0.27774042    -0.10500
C182        C  0.49177951  0.07105802  0.27276881    -0.01400
C183        C  0.45694871  0.06615505  0.28793300    -0.11600
C184        C  0.45370109  0.08952356  0.31271283    -0.10000
H185        H  0.04167869  0.15800096  0.30545055     0.07900
H186        H  0.04915802  0.11704818  0.27089803     0.11600
H187        H  0.43110575  0.04416119  0.28163059     0.11300
H188        H  0.42690064  0.08142506  0.32580421     0.07900
C189        C  0.46454376  0.08964294  0.17613596    -0.11200
C190        C  0.48491962  0.09150713  0.14565086     0.05900
C191        C  0.00843054  0.07558317  0.14617105    -0.10000
C192        C  0.01207265  0.05907688  0.17687046    -0.11600
C193        C  0.49354293  0.05832325  0.20973360    -0.01400
C194        C  0.46845446  0.07368051  0.20656945    -0.10500
C195        C  0.48359825  0.11282131  0.11496444     0.06000
H196        H  0.02509120  0.07679718  0.12300454     0.07900
H197        H  0.03346563  0.05172249  0.17464966     0.11300
H198        H  0.44967920  0.07290262  0.22709964     0.11600
H199        H  0.44577813  0.10139755  0.17695263     0.07900
C200        C  0.44982498  0.11188023  0.10547347    -0.11200
C201        C  0.44961413  0.13633299  0.08059618    -0.10500
C202        C  0.48321113  0.16242633  0.06475216    -0.01400
C203        C  0.01664724  0.16201968  0.07289465    -0.11600
C204        C  0.01678361  0.13745642  0.09754202    -0.10000
H205        H  0.42363653  0.09282969  0.11801283     0.07900
H206        H  0.42332046  0.13559805  0.07469336     0.11600
H207        H  0.04303464  0.18144814  0.06095213     0.11300
H208        H  0.04317109  0.13897987  0.10424566     0.07900
C209        C  0.34589545  0.37511716  0.10923287    -0.11200
C210        C  0.37762337  0.37315642  0.12034835     0.05900
C211        C  0.38648689  0.34760439  0.10425502    -0.10000
C212        C  0.36362126  0.32413905  0.07827118    -0.11600
C213        C  0.33178200  0.32616288  0.06735810    -0.01400
C214        C  0.32359781  0.35232946  0.08289825    -0.10500
C215        C  0.39998641  0.39635444  0.14985433     0.06000
H216        H  0.41037942  0.34493042  0.11258728     0.07900
H217        H  0.37060113  0.30412770  0.06706354     0.11300
H218        H  0.29920651  0.35457048  0.07545237     0.11600
H219        H  0.33784948  0.39395107  0.12129064     0.07900
C220        C  0.43894702  0.41242475  0.14939491    -0.11200
C221        C  0.45955536  0.43273539  0.17805727    -0.10500
C222        C  0.44258038  0.43678483  0.21017911    -0.01400
C223        C  0.40273950  0.42251496  0.20751685    -0.11600
C224        C  0.38227743  0.40263366  0.17894715    -0.10000
H225        H  0.45381073  0.40950036  0.12654760     0.07900
H226        H  0.48869582  0.44407415  0.17330337     0.11600
H227        H  0.38641672  0.42499603  0.22897569     0.11300
H228        H  0.35214467  0.39114642  0.18037917     0.07900
C229        C  0.32248285  0.33919976  0.35772839    -0.11200
C230        C  0.35312450  0.33487284  0.34575270     0.05900
C231        C  0.36285664  0.31180090  0.36420103    -0.10000
C232        C  0.34308874  0.29447038  0.39506878    -0.11600
C233        C  0.31362248  0.30040387  0.40819239    -0.01400
C234        C  0.30287668  0.32210953  0.38858158    -0.10500
C235        C  0.38025910  0.36191475  0.32095486     0.06000
H236        H  0.38713384  0.30901413  0.35593765     0.07900
H237        H  0.35188673  0.27768170  0.40941136     0.11300
H238        H  0.28002195  0.32683848  0.39764703     0.11600
H239        H  0.31524600  0.35769901  0.34434170     0.07900
C240        C  0.40362644  0.39569771  0.33388295    -0.11200
C241        C  0.42827927  0.42332973  0.31181975    -0.10500
C242        C  0.43265334  0.42102709  0.27462821    -0.01400
C243        C  0.40826456  0.38398107  0.26326314    -0.11600
C244        C  0.38283505  0.35575262  0.28537311    -0.10000
H245        H  0.40239236  0.40118543  0.36168294     0.07900
H246        H  0.44222182  0.44656026  0.32676646     0.11600
H247        H  0.40897811  0.37480396  0.23683574     0.11300
H248        H  0.36536249  0.32915175  0.27454766     0.07900
C249        C  0.12289550  0.16153397  0.39597252    -0.11200
C250        C  0.12728333  0.13257357  0.38192755     0.05900
C251        C  0.15479719  0.12513245  0.39557443    -0.10000
C252        C  0.17867338  0.14718479  0.42145049    -0.11600
C253        C  0.17562496  0.17730098  0.43426992    -0.01400
C254        C  0.14687932  0.18373634  0.42182834    -0.10500
C255        C  0.10511212  0.11147626  0.35163733     0.06000
H256        H  0.15826748  0.10253904  0.38569221     0.07900
H257        H  0.20019748  0.14121823  0.43066029     0.11300
H258        H  0.14359326  0.20660591  0.43128968     0.11600
H259        H  0.10200900  0.16793462  0.38591611     0.07900
C260        C  0.06645726  0.09652560  0.35145645    -0.11200
C261        C  0.04595219  0.07518373  0.32319714    -0.10500
C262        C  0.06252261  0.06825203  0.29168838    -0.01400
C263        C  0.10220869  0.08288611  0.29550568    -0.11600
C264        C  0.12268726  0.10435064  0.32328376    -0.10000
H265        H  0.05173354  0.10094076  0.37359799     0.07900
H266        H  0.01728715  0.06736134  0.32770257     0.11600
H267        H  0.11791449  0.07264333  0.28146668     0.11300
H268        H  0.15254526  0.11367008  0.32337279     0.07900
C269        C  0.18620614  0.16325547  0.14064792    -0.11200
C270        C  0.14850590  0.15538694  0.14518878     0.05900
C271        C  0.13347604  0.16920011  0.12015802    -0.10000
C272        C  0.15525549  0.18997527  0.09162871    -0.11600
C273        C  0.19232577  0.19665832  0.08688334    -0.01400
C274        C  0.20756192  0.18307431  0.11158441    -0.10500
C275        C  0.12466830  0.13201955  0.17500021     0.06000
H276        H  0.10463630  0.16345695  0.12201431     0.07900
H277        H  0.14275000  0.19987901  0.07268705     0.11300
H278        H  0.23627426  0.18820947  0.10865952     0.11600
H279        H  0.19973094  0.15452755  0.15951741     0.07900
C280        C  0.13286621  0.10724321  0.19143393    -0.11200
C281        C  0.10952918  0.08460392  0.21816954    -0.10500
C282        C  0.07277730  0.07908458  0.22716286    -0.01400
C283        C  0.06958454  0.10987385  0.21371831    -0.11600
C284        C  0.09364223  0.13445731  0.18822386    -0.10000
H285        H  0.15774002  0.10510747  0.18438261     0.07900
H286        H  0.12301152  0.07244910  0.23105162     0.11600
H287        H  0.04654679  0.11505404  0.21832162     0.11300
H288        H  0.08718878  0.15512742  0.17868441     0.07900
O289        O  0.23984857  0.20919277  0.54324111    -0.73300
O290        O  0.29998797  0.26018335  0.95705187    -0.74300
O291        O  0.30919592  0.27242074  0.53155408    -0.62900
O292        O  0.23020454  0.19778901  0.96940014    -0.71300
O293        O  0.20141174  0.23150654  0.96820382    -0.70900
O294        O  0.27885767  0.30468698  0.53043107    -0.62100
O295        O  0.27074781  0.29349118  0.95572210    -0.74600
O296        O  0.20924039  0.24129130  0.54164591    -0.73400
Cu297      Cu  0.27090110  0.23380631  0.00038296     1.04600
Cu298      Cu  0.23924295  0.26903507  0.49900543     1.04300
C299        C  0.21487203  0.21675725  0.55584608     0.92900
C300        C  0.29403653  0.28408453  0.94200766     0.92000
C301        C  0.30572093  0.30002555  0.54160727     0.84200
C302        C  0.20354367  0.20317318  0.95871050     0.90400
O303        O  0.45561194  0.20291907  0.95725337    -0.73300
O304        O  0.45734366  0.25941257  0.54396817    -0.74300
O305        O  0.46033201  0.27250339  0.96990519    -0.62900
O306        O  0.45384054  0.19035923  0.53131433    -0.71300
O307        O  0.01571431  0.21720194  0.53150909    -0.70900
O308        O  0.02200383  0.29592436  0.96834064    -0.62100
O309        O  0.01939795  0.28659844  0.54179605    -0.74600
O310        O  0.01731552  0.22669818  0.95783970    -0.73400
Cu311      Cu  0.45455184  0.23035727  0.00064101     1.04600
Cu312      Cu  0.02066588  0.25741056  0.99991605     1.04300
C313        C  0.48609756  0.20563440  0.94397127     0.92900
C314        C  0.48873873  0.28254288  0.55598606     0.92000
C315        C  0.49255886  0.29707257  0.95916302     0.84200
C316        C  0.48412999  0.19114114  0.54125894     0.90400
O317        O  0.19546975  0.47222515  0.53324867    -0.73300
O318        O  0.27566152  0.46784613  0.97131403    -0.74300
O319        O  0.26436601  0.47070459  0.54451477    -0.62900
O320        O  0.20739375  0.46885886  0.95976314    -0.71300
O321        O  0.23810071  0.02904459  0.95762080    -0.70900
O322        O  0.29454536  0.03096284  0.54319543    -0.62100
O323        O  0.30644502  0.02799944  0.96953987    -0.74600
O324        O  0.22624984  0.03234163  0.53085138    -0.73400
Cu325      Cu  0.23462027  0.46782032  0.00238596     1.04600
Cu326      Cu  0.26736794  0.03216163  0.00025929     1.04300
C327        C  0.19799846  0.50304787  0.54154358     0.92900
C328        C  0.30373839  0.49723840  0.96059598     0.92000
C329        C  0.28892467  0.50087672  0.55679861     0.84200
C330        C  0.21374675  0.49870544  0.94524548     0.90400
C331        C  0.00664984  0.45950637  0.75358424    -0.02900
C332        C  0.49729452  0.04124369  0.74753112    -0.02900
C333        C  0.04247839  0.04639828  0.75499703    -0.02900
C334        C  0.04517270  0.50425991  0.75211087    -0.02900
C335        C  0.45883490  0.99618759  0.75103607    -0.02900
C336        C  0.46216006  0.45528977  0.74753671    -0.02900
C337        C  0.37510331  0.00317772  0.70216415    -0.11200
C338        C  0.38329904  0.50019049  0.66699167     0.05900
C339        C  0.41473630  0.49623124  0.65855656    -0.10000
C340        C  0.43745684  0.49525127  0.68491541    -0.11600
C341        C  0.42977233  0.49640911  0.72176685    -0.01400
C342        C  0.39761893  0.00177626  0.72860260    -0.10500
C343        C  0.35891060  0.50081005  0.63913434     0.06000
H344        H  0.42243894  0.49479344  0.63134935     0.07900
H345        H  0.46213733  0.49411758  0.67595361     0.11300
H346        H  0.38829930  0.00602075  0.75382575     0.11600
H347        H  0.35098042  0.00667570  0.70939283     0.07900
C348        C  0.34784184  0.02798034  0.63806733    -0.11200
C349        C  0.32508565  0.02832150  0.61121117    -0.10500
C350        C  0.31205841  0.50072120  0.58586034     0.00400
C351        C  0.32264576  0.47331490  0.58739484    -0.11600
C352        C  0.34639473  0.47379193  0.61337371    -0.10000
H353        H  0.35748190  0.04931540  0.65753944     0.07900
H354        H  0.31741940  0.04985267  0.61039734     0.11600
H355        H  0.31340452  0.45205306  0.56784680     0.11300
H356        H  0.35501418  0.45300612  0.61345944     0.07900
C357        C  0.35444808  0.46036237  0.90133258    -0.11200
C358        C  0.38335461  0.49224533  0.88651681     0.05900
C359        C  0.38832210  0.02601443  0.89878512    -0.10000
C360        C  0.36317838  0.02773555  0.92377677    -0.11600
C361        C  0.33280890  0.49568141  0.93710597    -0.01400
C362        C  0.32948561  0.46204041  0.92636986    -0.10500
C363        C  0.40331019  0.49013582  0.85416613     0.06000
H364        H  0.41015936  0.05094116  0.88745276     0.07900
H365        H  0.36667593  0.05409682  0.93162309     0.11300
H366        H  0.30671700  0.43690543  0.93628200     0.11600
H367        H  0.35013930  0.43405958  0.89223422     0.07900
C368        C  0.44243438  0.00789278  0.85048480    -0.11200
C369        C  0.45939551  0.00689301  0.81802098    -0.10500
C370        C  0.43874322  0.49164624  0.78787124    -0.01400
C371        C  0.39954951  0.46993029  0.79394779    -0.11600
C372        C  0.38225273  0.46999782  0.82596621    -0.10000
H373        H  0.45965646  0.02155551  0.87260939     0.07900
H374        H  0.48835721  0.01556690  0.81564903     0.11600
H375        H  0.38158285  0.45257827  0.77408732     0.11300
H376        H  0.35208502  0.45460774  0.82843713     0.07900
C377        C  0.17143057  0.03033138  0.87527538    -0.11200
C378        C  0.14687167  0.49740890  0.85954465     0.05900
C379        C  0.14612287  0.46511519  0.87041420    -0.10000
C380        C  0.16849490  0.46552385  0.89785484    -0.11600
C381        C  0.19224625  0.49833023  0.91445930    -0.01400
C382        C  0.19406349  0.03085285  0.90236370    -0.10500
C383        C  0.12041578  0.49695565  0.83361989     0.06000
H384        H  0.12725740  0.43950098  0.85857883     0.07900
H385        H  0.16666625  0.44011664  0.90649820     0.11300
H386        H  0.21213494  0.05655017  0.91452028     0.11600
H387        H  0.17263404  0.05552416  0.86685157     0.07900
C388        C  0.09697182  0.01174618  0.84218588    -0.11200
C389        C  0.07216376  0.01187209  0.81771872    -0.10500
C390        C  0.07266676  0.50229049  0.78172360    -0.01400
C391        C  0.09193252  0.48125733  0.77689724    -0.11600
C392        C  0.11636556  0.47993356  0.80133084    -0.10000
H393        H  0.09666196  0.02188761  0.86842708     0.07900
H394        H  0.05207550  0.01905971  0.82851731     0.11600
H395        H  0.08876822  0.46526990  0.75408232     0.11300
H396        H  0.13191577  0.46544426  0.79495057     0.07900
C397        C  0.14754383  0.04095138  0.60019826    -0.11200
C398        C  0.11704958  0.50912174  0.61323710     0.05900
C399        C  0.11108558  0.47551962  0.59978604    -0.10000
C400        C  0.13660646  0.47349297  0.57548535    -0.11600
C401        C  0.16853270  0.50514711  0.56407525    -0.01400
C402        C  0.17288587  0.03902675  0.57568642    -0.10500
C403        C  0.09897896  0.51032916  0.64705295     0.06000
H404        H  0.08823269  0.45070025  0.60999893     0.07900
H405        H  0.13217695  0.44704267  0.56683656     0.11300
H406        H  0.19696764  0.06397947  0.56730106     0.11600
H407        H  0.15315857  0.06710573  0.61088308     0.07900
C408        C  0.11992265  0.01681444  0.67682915    -0.11200
C409        C  0.10407188  0.01531134  0.70989387    -0.10500
C410        C  0.06591623  0.50802884  0.71528151    -0.01400
C411        C  0.04615154  0.50312194  0.68442668    -0.11600
C412        C  0.06179986  0.50363797  0.65071098    -0.10000
H413        H  0.14889036  0.02254095  0.67464883     0.07900
H414        H  0.12377078  0.02247041  0.73063590     0.11600
H415        H  0.01779888  0.49805445  0.68721694     0.11300
H416        H  0.04487023  0.49857528  0.62779205     0.07900
C417        C  0.47467917  0.36721435  0.70136085    -0.11200
C418        C  0.50074965  0.37583157  0.67362505     0.05900
C419        C  0.03416878  0.40788152  0.67664027    -0.10000
C420        C  0.03866453  0.43278849  0.70318186    -0.11600
C421        C  0.50899024  0.42969201  0.72635247    -0.01400
C422        C  0.48035230  0.39269498  0.72791047    -0.10500
C423        C  0.49533810  0.35114909  0.64319606     0.06000
H424        H  0.05775757  0.41323140  0.65924398     0.07900
H425        H  0.06664377  0.45228782  0.70480686     0.11300
H426        H  0.46434155  0.38218272  0.75152289     0.11600
H427        H  0.45018594  0.34089954  0.70314480     0.07900
C428        C  0.47454737  0.31312289  0.64649575    -0.11200
C429        C  0.47146218  0.29061769  0.61784771    -0.10500
C430        C  0.48984621  0.30568464  0.58575636    -0.01400
C431        C  0.00987919  0.34342470  0.58209848    -0.11600
C432        C  0.01204609  0.36589205  0.61024699    -0.10000
H433        H  0.46150413  0.30058879  0.67133538     0.07900
H434        H  0.45578661  0.26144943  0.62105938     0.11600
H435        H  0.02362174  0.35553591  0.55727550     0.11300
H436        H  0.02703685  0.39494472  0.60616301     0.07900
C437        C  0.02028121  0.39413845  0.82184385    -0.11200
C438        C  0.50787606  0.40168686  0.85362060     0.05900
C439        C  0.50043574  0.43100240  0.85496460    -0.10000
C440        C  0.50282976  0.45040663  0.82413252    -0.11600
C441        C  0.50874030  0.43988612  0.79021753    -0.01400
C442        C  0.02191393  0.41327481  0.79156188    -0.10500
C443        C  0.50452969  0.37940661  0.88485513     0.06000
H444        H  0.49326084  0.43928044  0.87980053     0.07900
H445        H  0.49917411  0.47363188  0.82717420     0.11300
H446        H  0.03447338  0.40657032  0.76931601     0.11600
H447        H  0.02875818  0.37314385  0.82029519     0.07900
C448        C  0.46954122  0.35742560  0.90111543    -0.11200
C449        C  0.46548083  0.33112318  0.92603250    -0.10500
C450        C  0.49647311  0.32672813  0.93529225    -0.01400
C451        C  0.03174477  0.35025063  0.92023035    -0.11600
C452        C  0.03563988  0.37604882  0.89517723    -0.10000
H453        H  0.44509649  0.35934601  0.89321129     0.07900
H454        H  0.43799265  0.31361685  0.93727439     0.11600
H455        H  0.05629164  0.34787194  0.92679065     0.11300
H456        H  0.06281744  0.39261197  0.88285251     0.07900
C457        C  0.01645842  0.16051703  0.87290760    -0.11200
C458        C  0.48458721  0.14387983  0.85213696     0.05900
C459        C  0.45283261  0.14736429  0.86217189    -0.10000
C460        C  0.45319181  0.16731382  0.89207420    -0.11600
C461        C  0.48533869  0.18428780  0.91244443    -0.01400
C462        C  0.01693774  0.18064243  0.90248136    -0.10500
C463        C  0.48473468  0.12200003  0.82112094     0.06000
H464        H  0.42786914  0.13504145  0.84676278     0.07900
H465        H  0.42841479  0.16972640  0.89906530     0.11300
H466        H  0.04197752  0.19296630  0.91782222     0.11600
H467        H  0.04100290  0.15751243  0.86663766     0.07900
C468        C  0.01726002  0.13214811  0.80101453    -0.11200
C469        C  0.02055773  0.10775789  0.77773882    -0.10500
C470        C  0.49178096  0.07105851  0.77276747    -0.01400
C471        C  0.45695007  0.06615677  0.78793039    -0.11600
C472        C  0.45370157  0.08952791  0.81270666    -0.10000
H473        H  0.04168032  0.15800322  0.80544560     0.07900
H474        H  0.04916039  0.11704657  0.77089895     0.11600
H475        H  0.43110730  0.04416280  0.78162862     0.11300
H476        H  0.42690070  0.08143090  0.82579669     0.07900
C477        C  0.46455887  0.08964802  0.67613084    -0.11200
C478        C  0.48493431  0.09150811  0.64564643     0.05900
C479        C  0.00844258  0.07558148  0.64616953    -0.10000
C480        C  0.01208129  0.05907536  0.67687074    -0.11600
C481        C  0.49354931  0.05832301  0.70973240    -0.01400
C482        C  0.46846474  0.07368416  0.70656546    -0.10500
C483        C  0.48361224  0.11281866  0.61495707     0.06000
H484        H  0.02510359  0.07679310  0.62300406     0.07900
H485        H  0.03347414  0.05172078  0.67465250     0.11300
H486        H  0.44968916  0.07290851  0.72709452     0.11600
H487        H  0.44579613  0.10140592  0.67694563     0.07900
C488        C  0.44983783  0.11187567  0.60546716    -0.11200
C489        C  0.44962433  0.13632794  0.58059112    -0.10500
C490        C  0.48321970  0.16242252  0.56474609    -0.01400
C491        C  0.01665721  0.16201611  0.57288499    -0.11600
C492        C  0.01679653  0.13745337  0.59753211    -0.10000
H493        H  0.42365031  0.09282481  0.61800783     0.07900
H494        H  0.42332977  0.13559227  0.57469088     0.11600
H495        H  0.04304332  0.18144502  0.56094071     0.11300
H496        H  0.04318543  0.13897817  0.60423451     0.07900
C497        C  0.34589893  0.37511609  0.60922533    -0.11200
C498        C  0.37762378  0.37315428  0.62034785     0.05900
C499        C  0.38648906  0.34760113  0.60425969    -0.10000
C500        C  0.36362785  0.32413553  0.57827382    -0.11600
C501        C  0.33179151  0.32616033  0.56735358    -0.01400
C502        C  0.32360617  0.35232866  0.58288812    -0.10500
C503        C  0.39998377  0.39635411  0.64985399     0.06000
H504        H  0.41037945  0.34492650  0.61259759     0.07900
H505        H  0.37060833  0.30412280  0.56707081     0.11300
H506        H  0.29921708  0.35457073  0.57543650     0.11600
H507        H  0.33785147  0.39395031  0.62127962     0.07900
C508        C  0.43894403  0.41242480  0.64939562    -0.11200
C509        C  0.45955110  0.43273588  0.67805778    -0.10500
C510        C  0.44257528  0.43678512  0.71017906    -0.01400
C511        C  0.40273459  0.42251679  0.70751541    -0.11600
C512        C  0.38227339  0.40263495  0.67894503    -0.10000
H513        H  0.45380856  0.40949979  0.62654925     0.07900
H514        H  0.48869140  0.44407397  0.67330428     0.11600
H515        H  0.38641170  0.42499921  0.72897390     0.11300
H516        H  0.35214066  0.39114830  0.68037508     0.07900
C517        C  0.32247580  0.33919067  0.85771872    -0.11200
C518        C  0.35312013  0.33486514  0.84574929     0.05900
C519        C  0.36285378  0.31179846  0.86420512    -0.10000
C520        C  0.34308503  0.29447292  0.89507430    -0.11600
C521        C  0.31361748  0.30040738  0.90819254    -0.01400
C522        C  0.30286978  0.32210664  0.88857403    -0.10500
C523        C  0.38025624  0.36190734  0.82095248     0.06000
H524        H  0.38713288  0.30901274  0.85594669     0.07900
H525        H  0.35188391  0.27768823  0.90942254     0.11300
H526        H  0.28001355  0.32683531  0.89763484     0.11600
H527        H  0.31523757  0.35768577  0.84432598     0.07900
C528        C  0.40362086  0.39569076  0.83388143    -0.11200
C529        C  0.42827033  0.42332550  0.81181871    -0.10500
C530        C  0.43264569  0.42102457  0.77462716    -0.01400
C531        C  0.40825715  0.38397891  0.76326041    -0.11600
C532        C  0.38283049  0.35574799  0.78536987    -0.10000
H533        H  0.40238628  0.40117703  0.86168170     0.07900
H534        H  0.44221084  0.44655574  0.82676635     0.11600
H535        H  0.40897015  0.37480334  0.73683231     0.11300
H536        H  0.36535859  0.32914753  0.77454322     0.07900
C537        C  0.12288138  0.16153614  0.89597290    -0.11200
C538        C  0.12727499  0.13257794  0.88192968     0.05900
C539        C  0.15479307  0.12514370  0.89557716    -0.10000
C540        C  0.17866819  0.14720088  0.92145080    -0.11600
C541        C  0.17561456  0.17731501  0.93426794    -0.01400
C542        C  0.14686446  0.18374361  0.92182688    -0.10500
C543        C  0.10510557  0.11147544  0.85164064     0.06000
H544        H  0.15826775  0.10255184  0.88569731     0.07900
H545        H  0.20019572  0.14123938  0.93066065     0.11300
H546        H  0.14357422  0.20661119  0.93128727     0.11600
H547        H  0.10199123  0.16793137  0.88591637     0.07900
C548        C  0.06645115  0.09652498  0.85145727    -0.11200
C549        C  0.04594781  0.07518089  0.82319896    -0.10500
C550        C  0.06252033  0.06824669  0.79169210    -0.01400
C551        C  0.10220348  0.08287863  0.79551469    -0.11600
C552        C  0.12268228  0.10434416  0.82329024    -0.10000
H553        H  0.05172588  0.10094249  0.87359639     0.07900
H554        H  0.01728272  0.06735920  0.82770206     0.11600
H555        H  0.11791139  0.07263930  0.78147098     0.11300
H556        H  0.15254013  0.11366412  0.82338161     0.07900
C557        C  0.18621632  0.16322747  0.64064459    -0.11200
C558        C  0.14852355  0.15538204  0.64519848     0.05900
C559        C  0.13350417  0.16921833  0.62017931    -0.10000
C560        C  0.15528571  0.18999248  0.59165048    -0.11600
C561        C  0.19234659  0.19665064  0.58689111    -0.01400
C562        C  0.20757285  0.18304441  0.61158019    -0.10500
C563        C  0.12468185  0.13201441  0.67500987     0.06000
H564        H  0.10467006  0.16349386  0.62204201     0.07900
H565        H  0.14278745  0.19991423  0.57271897     0.11300
H566        H  0.23627821  0.18816024  0.60864538     0.11600
H567        H  0.19973598  0.15448299  0.65950370     0.07900
C568        C  0.13287388  0.10723368  0.69144633    -0.11200
C569        C  0.10953132  0.08459656  0.71817919    -0.10500
C570        C  0.07278097  0.07907891  0.72716809    -0.01400
C571        C  0.06959276  0.10987036  0.71372195    -0.11600
C572        C  0.09365597  0.13445457  0.68823136    -0.10000
H573        H  0.15774652  0.10509475  0.68439919     0.07900
H574        H  0.12300871  0.07243831  0.73106916     0.11600
H575        H  0.04655549  0.11505179  0.71832225     0.11300
H576        H  0.08720576  0.15512747  0.67869364     0.07900
O577        O  0.23984976  0.70914995  0.04325427    -0.73300
O578        O  0.30006146  0.76015904  0.45708599    -0.74300
O579        O  0.30921086  0.77237263  0.03159988    -0.62900
O580        O  0.23028099  0.69773354  0.46941305    -0.71300
O581        O  0.20146710  0.73143167  0.46822027    -0.70900
O582        O  0.27888170  0.80464688  0.03046723    -0.62100
O583        O  0.27079387  0.79344184  0.45575881    -0.74600
O584        O  0.20924900  0.74125573  0.04164897    -0.73400
Cu585      Cu  0.27095927  0.73375571  0.50040976     1.04600
Cu586      Cu  0.23926998  0.76900132  0.99902473     1.04300
C587        C  0.21486905  0.71671539  0.05584796     0.92900
C588        C  0.29410208  0.78405996  0.44204885     0.92000
C589        C  0.30573981  0.79997943  0.04165077     0.84200
C590        C  0.20361259  0.70310490  0.45872307     0.90400
O591        O  0.45566977  0.70292285  0.45727257    -0.73300
O592        O  0.45734205  0.75946430  0.04393923    -0.74300
O593        O  0.46034450  0.77249830  0.46986220    -0.62900
O594        O  0.45386869  0.69040575  0.03134166    -0.71300
O595        O  0.01574164  0.71726236  0.03156391    -0.70900
O596        O  0.02201759  0.79593413  0.46833457    -0.62100
O597        O  0.01939615  0.78666359  0.04179327    -0.74600
O598        O  0.01737390  0.72671997  0.45788475    -0.73400
Cu599      Cu  0.45457064  0.73037265  0.50063459     1.04600
Cu600      Cu  0.02068499  0.75744946  0.49994328     1.04300
C601        C  0.48616400  0.70564269  0.44400903     0.92900
C602        C  0.48872802  0.78260844  0.05596300     0.92000
C603        C  0.49257466  0.79706740  0.45912557     0.84200
C604        C  0.48415711  0.69119594  0.04130354     0.90400
O605        O  0.19546633  0.97230880  0.03320765    -0.73300
O606        O  0.27567908  0.96791306  0.47130360    -0.74300
O607        O  0.26435389  0.97076779  0.04451014    -0.62900
O608        O  0.20741765  0.96892273  0.45972830    -0.71300
O609        O  0.23806041  0.52895391  0.45763645    -0.70900
O610        O  0.29454702  0.53091768  0.04319000    -0.62100
O611        O  0.30640827  0.52791163  0.46952868    -0.74600
O612        O  0.22625172  0.53228198  0.03086865    -0.73400
Cu613      Cu  0.23462457  0.96787996  0.50236276     1.04600
Cu614      Cu  0.26734445  0.53207963  0.50025949     1.04300
C615        C  0.19799087  0.00313104  0.04150066     0.92900
C616        C  0.30375636  0.99730752  0.46058941     0.92000
C617        C  0.28891572  0.00093045  0.05680645     0.84200
C618        C  0.21377422  0.99877270  0.44521735     0.90400
C619        C  0.00668855  0.95955915  0.25358403    -0.02900
C620        C  0.49731616  0.54123131  0.24754089    -0.02900
C621        C  0.04249291  0.54636462  0.25500020    -0.02900
C622        C  0.04519387  0.00432088  0.25208030    -0.02900
C623        C  0.45884350  0.49618045  0.25103365    -0.02900
C624        C  0.46218353  0.95531175  0.24754906    -0.02900
C625        C  0.37516146  0.50324633  0.20215324    -0.11200
C626        C  0.38324110  0.00012378  0.16700079     0.05900
C627        C  0.41469375  0.99619041  0.15856115    -0.10000
C628        C  0.43742879  0.99522862  0.18491708    -0.11600
C629        C  0.42974928  0.99638684  0.22177002    -0.01400
C630        C  0.39766158  0.50182224  0.22859513    -0.10500
C631        C  0.35885806  0.00076599  0.13914585     0.06000
H632        H  0.42240146  0.99476659  0.13135277     0.07900
H633        H  0.46211727  0.99411343  0.17595085     0.11300
H634        H  0.38834663  0.50607016  0.25381949     0.11600
H635        H  0.35104895  0.50676332  0.20937719     0.07900
C636        C  0.34792222  0.52803821  0.13802038    -0.11200
C637        C  0.32514952  0.52835109  0.11116799    -0.10500
C638        C  0.31203867  0.00074582  0.08586731     0.00400
C639        C  0.32265458  0.97335607  0.08735272    -0.11600
C640        C  0.34638552  0.97379827  0.11333483    -0.10000
H641        H  0.35759428  0.54940478  0.15746037     0.07900
H642        H  0.31750510  0.54989584  0.11032191     0.11600
H643        H  0.31344776  0.95213390  0.06776476     0.11300
H644        H  0.35502300  0.95302383  0.11338225     0.07900
C645        C  0.35448550  0.96043237  0.40135138    -0.11200
C646        C  0.38337660  0.99231142  0.38651446     0.05900
C647        C  0.38830244  0.52593080  0.39880785    -0.10000
C648        C  0.36315779  0.52764602  0.42380050    -0.11600
C649        C  0.33282796  0.99575442  0.43709711    -0.01400
C650        C  0.32952136  0.96211372  0.42638393    -0.10500
C651        C  0.40332826  0.99018477  0.35416790     0.06000
H652        H  0.41015696  0.55086186  0.38749939     0.07900
H653        H  0.36667245  0.55400636  0.43167320     0.11300
H654        H  0.30676545  0.93697953  0.43631296     0.11600
H655        H  0.35018964  0.93412758  0.39227315     0.07900
C656        C  0.44240587  0.50784509  0.35048525    -0.11200
C657        C  0.45938021  0.50686951  0.31802255    -0.10500
C658        C  0.43874618  0.99165557  0.28787613    -0.01400
C659        C  0.39955644  0.96993036  0.29396630    -0.11600
C660        C  0.38226582  0.97002043  0.32598160    -0.10000
H661        H  0.45961925  0.52149886  0.37261744     0.07900
H662        H  0.48834436  0.51556239  0.31565782     0.11600
H663        H  0.38158849  0.95255651  0.27411772     0.11300
H664        H  0.35209904  0.95462621  0.32846079     0.07900
C665        C  0.17146524  0.53025191  0.37523386    -0.11200
C666        C  0.14691393  0.99748956  0.35950845     0.05900
C667        C  0.14625000  0.96521075  0.37030264    -0.10000
C668        C  0.16862183  0.96561646  0.39774419    -0.11600
C669        C  0.19228456  0.99840501  0.41442589    -0.01400
C670        C  0.19408858  0.53076909  0.40232975    -0.10500
C671        C  0.12046078  0.99703636  0.33357717     0.06000
H672        H  0.12744781  0.93960611  0.35841070     0.07900
H673        H  0.16686184  0.94021978  0.40632820     0.11300
H674        H  0.21221654  0.55647627  0.41443913     0.11600
H675        H  0.17272623  0.55545530  0.36676047     0.07900
C676        C  0.09697182  0.51169828  0.34220687    -0.11200
C677        C  0.07215400  0.51181986  0.31774946    -0.10500
C678        C  0.07271831  0.00238151  0.28167405    -0.01400
C679        C  0.09201816  0.98138169  0.27683313    -0.11600
C680        C  0.11644754  0.98005478  0.30126978    -0.10000
H681        H  0.09669158  0.52186776  0.36844093     0.07900
H682        H  0.05208371  0.51902909  0.32855138     0.11600
H683        H  0.08887197  0.96540815  0.25401071     0.11300
H684        H  0.13201984  0.96558963  0.29487849     0.07900
C685        C  0.14761450  0.54089957  0.10029291    -0.11200
C686        C  0.11698342  0.00919559  0.11313345     0.05900
C687        C  0.11103593  0.97559478  0.09969145    -0.10000
C688        C  0.13657277  0.97357218  0.07540609    -0.11600
C689        C  0.16850019  0.00522838  0.06400081    -0.01400
C690        C  0.17294245  0.53897136  0.07576852    -0.10500
C691        C  0.09892942  0.01040074  0.14696412     0.06000
H692        H  0.08818802  0.95077260  0.10990714     0.07900
H693        H  0.13215800  0.94712258  0.06677144     0.11300
H694        H  0.19702798  0.56392157  0.06738436     0.11600
H695        H  0.15324003  0.56705355  0.11098652     0.07900
C696        C  0.11995121  0.51675574  0.17691773    -0.11200
C697        C  0.10407978  0.51525715  0.20997152    -0.10500
C698        C  0.06591232  0.00808900  0.21522802    -0.01400
C699        C  0.04611918  0.00316084  0.18438814    -0.11600
C700        C  0.06174348  0.00368263  0.15065671    -0.10000
H701        H  0.14891684  0.52247267  0.17475732     0.07900
H702        H  0.12375744  0.52241623  0.23073277     0.11600
H703        H  0.01776594  0.99808485  0.18720159     0.11300
H704        H  0.04479061  0.99860645  0.12775278     0.07900
C705        C  0.47472313  0.86725268  0.20139355    -0.11200
C706        C  0.50075627  0.87588400  0.17362192     0.05900
C707        C  0.03417055  0.90794448  0.17660767    -0.10000
C708        C  0.03868785  0.93284815  0.20315996    -0.11600
C709        C  0.50902986  0.92974139  0.22635883    -0.01400
C710        C  0.48041235  0.89273636  0.22794543    -0.10500
C711        C  0.49531504  0.85120653  0.14318232     0.06000
H712        H  0.05773695  0.91330611  0.15917551     0.07900
H713        H  0.06666609  0.95235601  0.20476642     0.11300
H714        H  0.46442282  0.88222902  0.25157150     0.11600
H715        H  0.45024349  0.84092892  0.20319633     0.07900
C716        C  0.47459417  0.81317775  0.14649908    -0.11200
C717        C  0.47150564  0.79067656  0.11784599    -0.10500
C718        C  0.48981206  0.80575131  0.08572799    -0.01400
C719        C  0.00976106  0.84349496  0.08204966    -0.11600
C720        C  0.01193557  0.86595690  0.11020866    -0.10000
H721        H  0.46161789  0.80064154  0.17135773     0.07900
H722        H  0.45589503  0.76150645  0.12107457     0.11600
H723        H  0.02344284  0.85561157  0.05720824     0.11300
H724        H  0.02687287  0.89501121  0.10611866     0.07900
C725        C  0.02042962  0.89424812  0.32182218    -0.11200
C726        C  0.50797279  0.90174109  0.35359835     0.05900
C727        C  0.50048718  0.93102911  0.35495773    -0.10000
C728        C  0.50288093  0.95045149  0.32413786    -0.11600
C729        C  0.50881578  0.93995958  0.29021733    -0.01400
C730        C  0.02204893  0.91339312  0.29155202    -0.10500
C731        C  0.50460873  0.87942667  0.38481293     0.06000
H732        H  0.49327863  0.93927255  0.37979654     0.07900
H733        H  0.49920671  0.97366538  0.32719589     0.11300
H734        H  0.03463418  0.90672448  0.26930209     0.11600
H735        H  0.02894476  0.87328108  0.32026049     0.07900
C736        C  0.46962205  0.85748633  0.40109811    -0.11200
C737        C  0.46553673  0.83116440  0.42600419    -0.10500
C738        C  0.49650383  0.82671279  0.43523209    -0.01400
C739        C  0.03177402  0.85018589  0.42013613    -0.11600
C740        C  0.03569322  0.87600200  0.39509480    -0.10000
H741        H  0.44519561  0.85945715  0.39322551     0.07900
H742        H  0.43805063  0.81369607  0.43727185     0.11600
H743        H  0.05630179  0.84776038  0.42666755     0.11300
H744        H  0.06287024  0.89253298  0.38275325     0.07900
C745        C  0.01653545  0.66049699  0.37297397    -0.11200
C746        C  0.48467255  0.64387442  0.35218926     0.05900
C747        C  0.45292552  0.64737791  0.36220705    -0.10000
C748        C  0.45328093  0.66732866  0.39210570    -0.11600
C749        C  0.48541743  0.68428871  0.41249096    -0.01400
C750        C  0.01701131  0.68062582  0.40254650    -0.10500
C751        C  0.48481548  0.62199242  0.32117289     0.06000
H752        H  0.42797017  0.63506981  0.34678596     0.07900
H753        H  0.42850865  0.66975565  0.39908065     0.11300
H754        H  0.04204269  0.69293979  0.41789954     0.11600
H755        H  0.04107444  0.65747922  0.36671482     0.07900
C756        C  0.01733906  0.63213028  0.30106769    -0.11200
C757        C  0.02061652  0.60774270  0.27777298    -0.10500
C758        C  0.49182454  0.57105092  0.27279062    -0.01400
C759        C  0.45700111  0.56616490  0.28795665    -0.11600
C760        C  0.45376968  0.58953456  0.31274603    -0.10000
H761        H  0.04176957  0.65797486  0.30550864     0.07900
H762        H  0.04921650  0.61702312  0.27092492     0.11600
H763        H  0.43115149  0.54418248  0.28164920     0.11300
H764        H  0.42697054  0.58144701  0.32583589     0.07900
C765        C  0.46460283  0.58967976  0.17615843    -0.11200
C766        C  0.48495994  0.59152742  0.14566432     0.05900
C767        C  0.00845128  0.57558001  0.14617565    -0.10000
C768        C  0.01208771  0.55906271  0.17687297    -0.11600
C769        C  0.49357482  0.55832478  0.20974467    -0.01400
C770        C  0.46851066  0.57371103  0.20659013    -0.10500
C771        C  0.48363503  0.61284530  0.11497848     0.06000
H772        H  0.02509668  0.57677877  0.12300243     0.07900
H773        H  0.03345581  0.55167332  0.17464265     0.11300
H774        H  0.44975081  0.57295201  0.22712708     0.11600
H775        H  0.44585348  0.60145280  0.17698351     0.07900
C776        C  0.44986370  0.61191972  0.10550476    -0.11200
C777        C  0.44965136  0.63638219  0.08063861    -0.10500
C778        C  0.48324547  0.66247380  0.06478924    -0.01400
C779        C  0.01667907  0.66205023  0.07291038    -0.11600
C780        C  0.01681571  0.63747363  0.09754418    -0.10000
H781        H  0.42367769  0.59287421  0.11805084     0.07900
H782        H  0.42335895  0.63565667  0.07474967     0.11600
H783        H  0.04306402  0.68147316  0.06095922     0.11300
H784        H  0.04320022  0.63898125  0.10422912     0.07900
C785        C  0.34594894  0.87509784  0.10923939    -0.11200
C786        C  0.37764617  0.87310448  0.12039150     0.05900
C787        C  0.38648926  0.84752385  0.10433283    -0.10000
C788        C  0.36362666  0.82405789  0.07834706    -0.11600
C789        C  0.33181282  0.82611071  0.06739920    -0.01400
C790        C  0.32365449  0.85230873  0.08290416    -0.10500
C791        C  0.40000182  0.89630978  0.14989394     0.06000
H792        H  0.41036279  0.84483130  0.11269256     0.07900
H793        H  0.37058802  0.80402378  0.06716597     0.11300
H794        H  0.29928636  0.85457588  0.07542843     0.11600
H795        H  0.33792822  0.89396269  0.12126833     0.07900
C796        C  0.43896158  0.91240149  0.14942588    -0.11200
C797        C  0.45956701  0.93273920  0.17807579    -0.10500
C798        C  0.44259292  0.93678762  0.21019838    -0.01400
C799        C  0.40274854  0.92249487  0.20754337    -0.11600
C800        C  0.38228764  0.90259100  0.17898163    -0.10000
H801        H  0.45382621  0.90947603  0.12657961     0.07900
H802        H  0.48870549  0.94409564  0.17331136     0.11600
H803        H  0.38642452  0.92497617  0.22900184     0.11300
H804        H  0.35215340  0.89109082  0.18041247     0.07900
C805        C  0.32251369  0.83919516  0.35777629    -0.11200
C806        C  0.35317970  0.83490632  0.34580577     0.05900
C807        C  0.36295334  0.81187215  0.36426794    -0.10000
C808        C  0.34319434  0.79453155  0.39513594    -0.11600
C809        C  0.31369221  0.80041464  0.40824579    -0.01400
C810        C  0.30291472  0.82209334  0.38862910    -0.10500
C811        C  0.38029298  0.86195103  0.32099520     0.06000
H812        H  0.38725242  0.80912020  0.35601170     0.07900
H813        H  0.35202207  0.77777100  0.40948680     0.11300
H814        H  0.28003514  0.82678746  0.39768656     0.11600
H815        H  0.31524616  0.85766887  0.34438259     0.07900
C816        C  0.40365198  0.89574083  0.33391259    -0.11200
C817        C  0.42831277  0.92336312  0.31184474    -0.10500
C818        C  0.43268952  0.92104984  0.27465426    -0.01400
C819        C  0.40831275  0.88399663  0.26330151    -0.11600
C820        C  0.38288233  0.85577405  0.28541814    -0.10000
H821        H  0.40241301  0.90123874  0.36170944     0.07900
H822        H  0.44225446  0.94659555  0.32678809     0.11600
H823        H  0.40903313  0.87481240  0.23687850     0.11300
H824        H  0.36542130  0.82916578  0.27460200     0.07900
C825        C  0.12298567  0.66147436  0.39594662    -0.11200
C826        C  0.12737327  0.63250836  0.38191486     0.05900
C827        C  0.15487785  0.62506518  0.39558217    -0.10000
C828        C  0.17874090  0.64711911  0.42146880    -0.11600
C829        C  0.17569198  0.67724158  0.43427347    -0.01400
C830        C  0.14695616  0.68367783  0.42180947    -0.10500
C831        C  0.10519144  0.61139919  0.35163112     0.06000
H832        H  0.15834750  0.60246679  0.38571285     0.07900
H833        H  0.20025561  0.64114914  0.43069867     0.11300
H834        H  0.14366795  0.70655005  0.43125840     0.11600
H835        H  0.10210662  0.66787735  0.38587556     0.07900
C836        C  0.06653983  0.59648319  0.35145298    -0.11200
C837        C  0.04601450  0.57515120  0.32320009    -0.10500
C838        C  0.06256532  0.56820692  0.29168286    -0.01400
C839        C  0.10224175  0.58280618  0.29549592    -0.11600
C840        C  0.12274622  0.60424286  0.32327308    -0.10000
H841        H  0.05183077  0.60091659  0.37359699     0.07900
H842        H  0.01735277  0.56733894  0.32771418     0.11600
H843        H  0.11792612  0.57255321  0.28141755     0.11300
H844        H  0.15259829  0.61353316  0.32336192     0.07900
C845        C  0.18620869  0.66324441  0.14067063    -0.11200
C846        C  0.14849910  0.65534827  0.14518261     0.05900
C847        C  0.13346501  0.66913734  0.12013342    -0.10000
C848        C  0.15524999  0.68990629  0.09160317    -0.11600
C849        C  0.19232979  0.69660847  0.08688297    -0.01400
C850        C  0.20757045  0.68305633  0.11160903    -0.10500
C851        C  0.12466020  0.63197285  0.17498497     0.06000
H852        H  0.10462037  0.66337854  0.12197902     0.07900
H853        H  0.14274402  0.69979106  0.07264322     0.11300
H854        H  0.23629097  0.68821235  0.10870535     0.11600
H855        H  0.19973405  0.65454056  0.15956257     0.07900
C856        C  0.13285832  0.60718730  0.19140571    -0.11200
C857        C  0.10953100  0.58455930  0.21814479    -0.10500
C858        C  0.07278949  0.57904058  0.22716020    -0.01400
C859        C  0.06960209  0.60984150  0.21372766    -0.11600
C860        C  0.09364439  0.63441651  0.18822180    -0.10000
H861        H  0.15772959  0.60505237  0.18433925     0.07900
H862        H  0.12303237  0.57241973  0.23104037     0.11600
H863        H  0.04657767  0.61503687  0.21835051     0.11300
H864        H  0.08719119  0.65508950  0.17868569     0.07900
O865        O  0.23986817  0.70913893  0.54325708    -0.73300
O866        O  0.30005084  0.76016663  0.95708854    -0.74300
O867        O  0.30922494  0.77236767  0.53159784    -0.62900
O868        O  0.23026642  0.69774865  0.96941231    -0.71300
O869        O  0.20145708  0.73145077  0.96821379    -0.70900
O870        O  0.27889059  0.80463701  0.53046469    -0.62100
O871        O  0.27079052  0.79345599  0.95575744    -0.74600
O872        O  0.20926574  0.74124306  0.54165416    -0.73400
Cu873      Cu  0.27094440  0.73376550  0.00041006     1.04600
Cu874      Cu  0.23927946  0.76898656  0.49902728     1.04300
C875        C  0.21488806  0.71670427  0.55585325     0.92900
C876        C  0.29409584  0.78406911  0.94204925     0.92000
C877        C  0.30575107  0.79997337  0.54164763     0.84200
C878        C  0.20360051  0.70312214  0.95871951     0.90400
O879        O  0.45566804  0.70292646  0.95727035    -0.73300
O880        O  0.45732828  0.75945322  0.54393950    -0.74300
O881        O  0.46035320  0.77250432  0.96986230    -0.62900
O882        O  0.45387025  0.69040029  0.53134147    -0.71300
O883        O  0.01574342  0.71726273  0.53156370    -0.70900
O884        O  0.02202566  0.79593252  0.96832939    -0.62100
O885        O  0.01938265  0.78665807  0.54179789    -0.74600
O886        O  0.01737121  0.72671582  0.95788336    -0.73400
Cu887      Cu  0.45457538  0.73037942  0.00063422     1.04600
Cu888      Cu  0.02068922  0.75744890  0.99994044     1.04300
C889        C  0.48616096  0.70564319  0.94400614     0.92900
C890        C  0.48871202  0.78259936  0.55596521     0.92000
C891        C  0.49258378  0.79706851  0.95912191     0.84200
C892        C  0.48416051  0.69119285  0.54130172     0.90400
O893        O  0.19546253  0.97229619  0.53320841    -0.73300
O894        O  0.27568694  0.96792357  0.97130929    -0.74300
O895        O  0.26435294  0.97075861  0.54450584    -0.62900
O896        O  0.20742692  0.96893618  0.95972954    -0.71300
O897        O  0.23807134  0.52896636  0.95763559    -0.70900
O898        O  0.29454376  0.53090901  0.54318453    -0.62100
O899        O  0.30641862  0.52792198  0.96953455    -0.74600
O900        O  0.22624696  0.53227066  0.53087000    -0.73400
Cu901      Cu  0.23463013  0.96789162  0.00236529     1.04600
Cu902      Cu  0.26735198  0.53209049  0.00026184     1.04300
C903        C  0.19798733  0.00311823  0.54150275     0.92900
C904        C  0.30376591  0.99731757  0.96059647     0.92000
C905        C  0.28891457  0.00092221  0.55680095     0.84200
C906        C  0.21378385  0.99878592  0.94521790     0.90400
C907        C  0.00668207  0.95955477  0.75358443    -0.02900
C908        C  0.49731679  0.54122985  0.74754140    -0.02900
C909        C  0.04249145  0.54636016  0.75500380    -0.02900
C910        C  0.04518980  0.00431531  0.75208375    -0.02900
C911        C  0.45884175  0.49618042  0.75103445    -0.02900
C912        C  0.46217815  0.95531051  0.74754920    -0.02900
C913        C  0.37516332  0.50325350  0.70215321    -0.11200
C914        C  0.38324221  0.00012876  0.66700040     0.05900
C915        C  0.41469445  0.99619445  0.65856161    -0.10000
C916        C  0.43742892  0.99523247  0.68491792    -0.11600
C917        C  0.42974906  0.99639062  0.72177074    -0.01400
C918        C  0.39766189  0.50182694  0.72859575    -0.10500
C919        C  0.35885808  0.00076743  0.63914449     0.06000
H920        H  0.42240182  0.99476914  0.63135344     0.07900
H921        H  0.46211695  0.99411600  0.67595214     0.11300
H922        H  0.38834566  0.50607310  0.75382023     0.11600
H923        H  0.35105157  0.50677194  0.70937661     0.07900
C924        C  0.34792443  0.52804117  0.63801369    -0.11200
C925        C  0.32515165  0.52835077  0.61115969    -0.10500
C926        C  0.31203858  0.00074082  0.58586254     0.00400
C927        C  0.32265344  0.97335064  0.58735313    -0.11600
C928        C  0.34638438  0.97379606  0.61333697    -0.10000
H929        H  0.35759832  0.54941111  0.65745017     0.07900
H930        H  0.31750901  0.54989656  0.61030916     0.11600
H931        H  0.31344579  0.95212565  0.56776810     0.11300
H932        H  0.35502145  0.95302148  0.61338839     0.07900
C933        C  0.35449636  0.96043973  0.90136187    -0.11200
C934        C  0.38338456  0.99231790  0.88652040     0.05900
C935        C  0.38831108  0.52593814  0.89881156    -0.10000
C936        C  0.36316765  0.52765463  0.92380510    -0.11600
C937        C  0.33283854  0.99576347  0.93710558    -0.01400
C938        C  0.32953374  0.96212241  0.92639583    -0.10500
C939        C  0.40333317  0.99018929  0.85417190     0.06000
H940        H  0.41016324  0.55086848  0.88749958     0.07900
H941        H  0.36668097  0.55401534  0.93167463     0.11300
H942        H  0.30677969  0.93698869  0.93632809     0.11600
H943        H  0.35020114  0.93413451  0.89228584     0.07900
C944        C  0.44241191  0.50784634  0.85048734    -0.11200
C945        C  0.45938323  0.50686899  0.81802329    -0.10500
C946        C  0.43874642  0.99165751  0.78787750    -0.01400
C947        C  0.39955638  0.96993556  0.79396899    -0.11600
C948        C  0.38226818  0.97002643  0.82598602    -0.10000
H949        H  0.45962742  0.52149828  0.87261891     0.07900
H950        H  0.48834684  0.51555757  0.81565715     0.11600
H951        H  0.38158711  0.95256240  0.77412051     0.11300
H952        H  0.35210138  0.95463389  0.82846707     0.07900
C953        C  0.17146788  0.53025861  0.87523423    -0.11200
C954        C  0.14690884  0.99749422  0.85951811     0.05900
C955        C  0.14624120  0.96521577  0.87031866    -0.10000
C956        C  0.16861851  0.96562480  0.89775627    -0.11600
C957        C  0.19229119  0.99841639  0.91442782    -0.01400
C958        C  0.19409836  0.53077911  0.90232548    -0.10500
C959        C  0.12045396  0.99703728  0.83358687     0.06000
H960        H  0.12743278  0.93960922  0.85843392     0.07900
H961        H  0.16685472  0.94022808  0.90634543     0.11300
H962        H  0.21223350  0.55648837  0.91442742     0.11600
H963        H  0.17273042  0.55546156  0.86675672     0.07900
C964        C  0.09695940  0.51169325  0.84221641    -0.11200
C965        C  0.07214087  0.51181138  0.81775724    -0.10500
C966        C  0.07271077  0.00237515  0.78168075    -0.01400
C967        C  0.09201378  0.98137831  0.77684186    -0.11600
C968        C  0.11644408  0.98005559  0.80127988    -0.10000
H969        H  0.09667695  0.52186218  0.86845028     0.07900
H970        H  0.05206801  0.51901898  0.82855634     0.11600
H971        H  0.08886935  0.96540438  0.75401946     0.11300
H972        H  0.13201991  0.96559358  0.79489006     0.07900
C973        C  0.14761710  0.54088787  0.60030357    -0.11200
C974        C  0.11698407  0.00918241  0.61314108     0.05900
C975        C  0.11103616  0.97558154  0.59969883    -0.10000
C976        C  0.13657195  0.97355898  0.57541222    -0.11600
C977        C  0.16849874  0.00521523  0.56400609    -0.01400
C978        C  0.17294387  0.53895978  0.57577785    -0.10500
C979        C  0.09892887  0.01038793  0.64697074     0.06000
H980        H  0.08818831  0.95075943  0.60991459     0.07900
H981        H  0.13215659  0.94710943  0.56677669     0.11300
H982        H  0.19703007  0.56390983  0.56739456     0.11600
H983        H  0.15324402  0.56704158  0.61099898     0.07900
C984        C  0.11994931  0.51674287  0.67692660    -0.11200
C985        C  0.10407694  0.51524673  0.70997920    -0.10500
C986        C  0.06591030  0.00808177  0.71523264    -0.01400
C987        C  0.04611920  0.00315475  0.68439167    -0.11600
C988        C  0.06174408  0.00367374  0.65066120    -0.10000
H989        H  0.14891449  0.52245800  0.67476781     0.07900
H990        H  0.12375421  0.52240598  0.73074073     0.11600
H991        H  0.01776687  0.99808211  0.68720366     0.11300
H992        H  0.04479263  0.99859874  0.62775640     0.07900
C993        C  0.47470739  0.86724852  0.70139375    -0.11200
C994        C  0.50073946  0.87587759  0.67362150     0.05900
C995        C  0.03415721  0.90793546  0.67660868    -0.10000
C996        C  0.03867776  0.93283966  0.70316180    -0.11600
C997        C  0.50902003  0.92973639  0.72635856    -0.01400
C998        C  0.48040088  0.89273224  0.72794625    -0.10500
C999        C  0.49529413  0.85119927  0.64318126     0.06000
H1000       H  0.05772378  0.91329382  0.65917826     0.07900
H1001       H  0.06665767  0.95234400  0.70477392     0.11300
H1002       H  0.46441402  0.88222528  0.75157389     0.11600
H1003       H  0.45022570  0.84092644  0.70319738     0.07900
C1004       C  0.47455866  0.81317083  0.64649402    -0.11200
C1005       C  0.47146997  0.79066893  0.61784139    -0.10500
C1006       C  0.48979124  0.80574230  0.58572835    -0.01400
C1007       C  0.00975146  0.84348556  0.58205294    -0.11600
C1008       C  0.01192551  0.86594841  0.61021061    -0.10000
H1009       H  0.46157176  0.80063448  0.67134951     0.07900
H1010       H  0.45584900  0.76149911  0.62106732     0.11600
H1011       H  0.02344337  0.85560142  0.55721464     0.11300
H1012       H  0.02687226  0.89500255  0.60612198     0.07900
C1013       C  0.02043378  0.89424488  0.82181307    -0.11200
C1014       C  0.50797339  0.90173171  0.85359018     0.05900
C1015       C  0.50047855  0.93101376  0.85495337    -0.10000
C1016       C  0.50286951  0.95043819  0.82413633    -0.11600
C1017       C  0.50880887  0.93995222  0.79021488    -0.01400
C1018       C  0.02204871  0.91339048  0.79154571    -0.10500
C1019       C  0.50461442  0.87941713  0.88480200     0.06000
H1020       H  0.49326689  0.93925221  0.87979347     0.07900
H1021       H  0.49919292  0.97365035  0.82719763     0.11300
H1022       H  0.03463620  0.90672618  0.76929466     0.11600
H1023       H  0.02895453  0.87328190  0.82024812     0.07900
C1024       C  0.46963294  0.85749177  0.90110274    -0.11200
C1025       C  0.46554928  0.83117269  0.92601069    -0.10500
C1026       C  0.49651340  0.82671001  0.93522483    -0.01400
C1027       C  0.03177919  0.85016664  0.92011150    -0.11600
C1028       C  0.03569648  0.87597975  0.89506838    -0.10000
H1029       H  0.44520827  0.85947214  0.89324162     0.07900
H1030       H  0.43806662  0.81371588  0.93729163     0.11600
H1031       H  0.05630398  0.84773070  0.92663134     0.11300
H1032       H  0.06286940  0.89249911  0.88271449     0.07900
C1033       C  0.01653326  0.66050261  0.87296644    -0.11200
C1034       C  0.48467181  0.64388163  0.85218033     0.05900
C1035       C  0.45292518  0.64738679  0.86219678    -0.10000
C1036       C  0.45327934  0.66733575  0.89209701    -0.11600
C1037       C  0.48541405  0.68429191  0.91248522    -0.01400
C1038       C  0.01700778  0.68062915  0.90254032    -0.10500
C1039       C  0.48481534  0.62199740  0.82116560     0.06000
H1040       H  0.42797089  0.63508028  0.84677413     0.07900
H1041       H  0.42850742  0.66976359  0.89907146     0.11300
H1042       H  0.04203832  0.69294093  0.91789460     0.11600
H1043       H  0.04107196  0.65748425  0.86670819     0.07900
C1044       C  0.01733984  0.63213261  0.80106225    -0.11200
C1045       C  0.02061791  0.60774257  0.77777098    -0.10500
C1046       C  0.49182532  0.57105085  0.77278945    -0.01400
C1047       C  0.45700203  0.56616600  0.78795476    -0.11600
C1048       C  0.45376999  0.58953838  0.81274068    -0.10000
H1049       H  0.04177068  0.65797714  0.80550251     0.07900
H1050       H  0.04921807  0.61702117  0.77092533     0.11600
H1051       H  0.43115250  0.54418331  0.78164835     0.11300
H1052       H  0.42697067  0.58145222  0.82582965     0.07900
C1053       C  0.46461768  0.58968481  0.67615390    -0.11200
C1054       C  0.48497412  0.59152820  0.64566031     0.05900
C1055       C  0.00846227  0.57557755  0.64617422    -0.10000
C1056       C  0.01209521  0.55906019  0.67687324    -0.11600
C1057       C  0.49358040  0.55832378  0.70974361    -0.01400
C1058       C  0.46852048  0.57371428  0.70658651    -0.10500
C1059       C  0.48364827  0.61284238  0.61497158     0.06000
H1060       H  0.02510770  0.57677367  0.62300187     0.07900
H1061       H  0.03346296  0.55167032  0.67464525     0.11300
H1062       H  0.44976048  0.57295763  0.72712251     0.11600
H1063       H  0.44587153  0.60146146  0.67697736     0.07900
C1064       C  0.44987577  0.61191529  0.60549969    -0.11200
C1065       C  0.44966052  0.63637711  0.58063480    -0.10500
C1066       C  0.48325278  0.66246950  0.56478375    -0.01400
C1067       C  0.01668778  0.66204560  0.57290030    -0.11600
C1068       C  0.01682765  0.63746971  0.59753389    -0.10000
H1069       H  0.42369089  0.59286990  0.61804767     0.07900
H1070       H  0.42336720  0.63565112  0.57474896     0.11600
H1071       H  0.04307122  0.68146850  0.56094665     0.11300
H1072       H  0.04321369  0.63897843  0.60421695     0.07900
C1073       C  0.34595245  0.87509690  0.60923135    -0.11200
C1074       C  0.37764647  0.87310248  0.62039096     0.05900
C1075       C  0.38649126  0.84752043  0.60433806    -0.10000
C1076       C  0.36363308  0.82405377  0.57835056    -0.11600
C1077       C  0.33182218  0.82610746  0.56739521    -0.01400
C1078       C  0.32366291  0.85230762  0.58289384    -0.10500
C1079       C  0.39999899  0.89630998  0.64989332     0.06000
H1080       H  0.41036266  0.84482736  0.61270371     0.07900
H1081       H  0.37059496  0.80401803  0.56717463     0.11300
H1082       H  0.29929705  0.85457580  0.57541203     0.11600
H1083       H  0.33793039  0.89396242  0.62125624     0.07900
C1084       C  0.43895841  0.91240204  0.64942622    -0.11200
C1085       C  0.45956265  0.93274030  0.67807582    -0.10500
C1086       C  0.44258786  0.93678864  0.71019785    -0.01400
C1087       C  0.40274365  0.92249762  0.70754145    -0.11600
C1088       C  0.38228356  0.90259318  0.67897908    -0.10000
H1089       H  0.45382376  0.90947576  0.62658091     0.07900
H1090       H  0.48870096  0.94409589  0.67331175     0.11600
H1091       H  0.38641963  0.92498031  0.72899952     0.11300
H1092       H  0.35214932  0.89109376  0.68040797     0.07900
C1093       C  0.32250254  0.83917923  0.85776106    -0.11200
C1094       C  0.35317613  0.83489763  0.84580147     0.05900
C1095       C  0.36295584  0.81187471  0.86427580    -0.10000
C1096       C  0.34319555  0.79453933  0.89514506    -0.11600
C1097       C  0.31368710  0.80041783  0.90824496    -0.01400
C1098       C  0.30290328  0.82208391  0.88861603    -0.10500
C1099       C  0.38029009  0.86194346  0.82099200     0.06000
H1100       H  0.38726037  0.80912837  0.85602807     0.07900
H1101       H  0.35202768  0.77778761  0.90950516     0.11300
H1102       H  0.28001809  0.82677304  0.89766530     0.11600
H1103       H  0.31522989  0.85764421  0.84435767     0.07900
C1104       C  0.40364628  0.89573365  0.83391054    -0.11200
C1105       C  0.42830344  0.92335901  0.81184327    -0.10500
C1106       C  0.43268175  0.92104782  0.77465274    -0.01400
C1107       C  0.40830510  0.88399507  0.76329804    -0.11600
C1108       C  0.38287746  0.85576982  0.78541392    -0.10000
H1109       H  0.40240684  0.90122971  0.86170777     0.07900
H1110       H  0.44224280  0.94659123  0.82678773     0.11600
H1111       H  0.40902499  0.87481255  0.73687429     0.11300
H1112       H  0.36541720  0.82916206  0.77459632     0.07900
C1113       C  0.12297265  0.66147982  0.89594465    -0.11200
C1114       C  0.12736411  0.63251438  0.88191657     0.05900
C1115       C  0.15487125  0.62507645  0.89558592    -0.10000
C1116       C  0.17873323  0.64713508  0.92147022    -0.11600
C1117       C  0.17568078  0.67725691  0.93427104    -0.01400
C1118       C  0.14694235  0.68368818  0.92180570    -0.10500
C1119       C  0.10518393  0.61140005  0.85163443     0.06000
H1120       H  0.15834388  0.60247842  0.88572013     0.07900
H1121       H  0.20025000  0.64116886  0.93070148     0.11300
H1122       H  0.14365142  0.70655967  0.93125224     0.11600
H1123       H  0.10209138  0.66787862  0.88587199     0.07900
C1124       C  0.06653244  0.59648365  0.85145426    -0.11200
C1125       C  0.04600891  0.57514856  0.82320232    -0.10500
C1126       C  0.06256142  0.56820191  0.79168764    -0.01400
C1127       C  0.10223714  0.58279912  0.79550435    -0.11600
C1128       C  0.12273998  0.60423877  0.82328060    -0.10000
H1129       H  0.05182215  0.60091951  0.87359569     0.07900
H1130       H  0.01734693  0.56733646  0.82771452     0.11600
H1131       H  0.11792174  0.57254397  0.78142958     0.11300
H1132       H  0.15259189  0.61352848  0.82337169     0.07900
C1133       C  0.18621717  0.66321343  0.64066601    -0.11200
C1134       C  0.14851543  0.65534179  0.64519143     0.05900
C1135       C  0.13349247  0.66915497  0.62015421    -0.10000
C1136       C  0.15527978  0.68992268  0.59162452    -0.11600
C1137       C  0.19234980  0.69659872  0.58689002    -0.01400
C1138       C  0.20757987  0.68302315  0.61160359    -0.10500
C1139       C  0.12467231  0.63196685  0.67499383     0.06000
H1140       H  0.10465374  0.66341587  0.62200648     0.07900
H1141       H  0.14278157  0.69982642  0.57267508     0.11300
H1142       H  0.23629308  0.68815888  0.60868977     0.11600
H1143       H  0.19973721  0.65449244  0.65954724     0.07900
C1144       C  0.13286463  0.60717802  0.69141691    -0.11200
C1145       C  0.10953311  0.58455081  0.71815442    -0.10500
C1146       C  0.07279194  0.57903494  0.72716548    -0.01400
C1147       C  0.06960904  0.60983737  0.71373110    -0.11600
C1148       C  0.09365663  0.63441310  0.68822844    -0.10000
H1149       H  0.15773414  0.60503878  0.68435461     0.07900
H1150       H  0.12303018  0.57240846  0.73105247     0.11600
H1151       H  0.04658518  0.61503431  0.71835070     0.11300
H1152       H  0.08720681  0.65508867  0.67869389     0.07900
O1153       O  0.73983039  0.20920268  0.04323846    -0.73300
O1154       O  0.79999788  0.26017611  0.45704882    -0.74300
O1155       O  0.80918205  0.27242498  0.03155687    -0.62900
O1156       O  0.73021803  0.19777452  0.46940082    -0.71300
O1157       O  0.70142123  0.23148854  0.46821007    -0.70900
O1158       O  0.77884839  0.30469560  0.03043458    -0.62100
O1159       O  0.77075070  0.29347760  0.45572219    -0.74600
O1160       O  0.70922355  0.24130254  0.04164082    -0.73400
Cu1161     Cu  0.77091536  0.23379721  0.50038232     1.04600
Cu1162     Cu  0.73923356  0.26904869  0.99900356     1.04300
C1163       C  0.71485286  0.21676685  0.05584069     0.92900
C1164       C  0.79404225  0.28407563  0.44200632     0.92000
C1165       C  0.80570955  0.30003068  0.04161123     0.84200
C1166       C  0.70355495  0.20315685  0.45871389     0.90400
O1167       O  0.95561547  0.20291681  0.45725528    -0.73300
O1168       O  0.95735596  0.25942298  0.04396788    -0.74300
O1169       O  0.96032501  0.27249873  0.46990510    -0.62900
O1170       O  0.95383746  0.19036382  0.03131478    -0.71300
O1171       O  0.51571113  0.21720098  0.03151000    -0.70900
O1172       O  0.52199726  0.29592737  0.46834597    -0.62100
O1173       O  0.51940995  0.28660362  0.04179135    -0.74600
O1174       O  0.51731970  0.22670364  0.45784049    -0.73400
Cu1175     Cu  0.95454877  0.23035161  0.50064114     1.04600
Cu1176     Cu  0.52066307  0.25741200  0.49991865     1.04300
C1177       C  0.98610236  0.20563528  0.44397373     0.92900
C1178       C  0.98875327  0.28255175  0.05598349     0.92000
C1179       C  0.99255137  0.29707306  0.45916682     0.84200
C1180       C  0.98412512  0.19114357  0.04126122     0.90400
O1181       O  0.69547373  0.47223650  0.03324704    -0.73300
O1182       O  0.77565267  0.46783569  0.47130891    -0.74300
O1183       O  0.76436741  0.47071314  0.04451834    -0.62900
O1184       O  0.70738377  0.46884628  0.45976272    -0.71300
O1185       O  0.73809006  0.02903129  0.45762103    -0.70900
O1186       O  0.79454855  0.03097207  0.04320150    -0.62100
O1187       O  0.80643527  0.02798906  0.46953353    -0.74600
O1188       O  0.72625490  0.03235418  0.03085077    -0.73400
Cu1189     Cu  0.73461408  0.46780937  0.50238419     1.04600
Cu1190     Cu  0.76736055  0.03215013  0.50025632     1.04300
C1191       C  0.69800185  0.50305929  0.04154061     0.92900
C1192       C  0.80372792  0.49722831  0.46058928     0.92000
C1193       C  0.78892607  0.50088437  0.05680341     0.84200
C1194       C  0.71373657  0.49869311  0.44524564     0.90400
C1195       C  0.50665637  0.45951111  0.25358329    -0.02900
C1196       C  0.99729323  0.04124458  0.24753080    -0.02900
C1197       C  0.54247927  0.04640222  0.25499385    -0.02900
C1198       C  0.54517716  0.50426572  0.25210660    -0.02900
C1199       C  0.95883639  0.99618698  0.25103547    -0.02900
C1200       C  0.96216552  0.45529161  0.24753618    -0.02900
C1201       C  0.87510170  0.00317098  0.20216468    -0.11200
C1202       C  0.88329790  0.50018530  0.16699166     0.05900
C1203       C  0.91473613  0.49622788  0.15855579    -0.10000
C1204       C  0.93745732  0.49524845  0.18491433    -0.11600
C1205       C  0.92977297  0.49640620  0.22176583    -0.01400
C1206       C  0.89761853  0.00177116  0.22860240    -0.10500
C1207       C  0.85891056  0.50080822  0.13913523     0.06000
H1208       H  0.92243942  0.49479189  0.13134841     0.07900
H1209       H  0.96213841  0.49411625  0.17595220     0.11300
H1210       H  0.88830025  0.00601729  0.25382552     0.11600
H1211       H  0.85097842  0.00666805  0.20939400     0.07900
C1212       C  0.84784066  0.02797844  0.13807406    -0.11200
C1213       C  0.82508444  0.02832286  0.11121959    -0.10500
C1214       C  0.81205885  0.50072580  0.08586433     0.00400
C1215       C  0.82264841  0.47332069  0.08739296    -0.11600
C1216       C  0.84639712  0.47379448  0.11337036    -0.10000
H1217       H  0.85747979  0.04931058  0.15754917     0.07900
H1218       H  0.81741725  0.04985358  0.11040982     0.11600
H1219       H  0.81340907  0.45206235  0.06784134     0.11300
H1220       H  0.85501791  0.45300942  0.11345161     0.07900
C1221       C  0.85443538  0.46035474  0.40132127    -0.11200
C1222       C  0.88334495  0.49223866  0.38651014     0.05900
C1223       C  0.88831495  0.02600737  0.39878179    -0.10000
C1224       C  0.86316981  0.02772718  0.42377231    -0.11600
C1225       C  0.83279701  0.49567209  0.43709743    -0.01400
C1226       C  0.82947155  0.46203150  0.42635735    -0.10500
C1227       C  0.90330397  0.49013120  0.35416152     0.06000
H1228       H  0.91015444  0.05093478  0.38745281     0.07900
H1229       H  0.86666853  0.05408810  0.43162158     0.11300
H1230       H  0.80670091  0.43689602  0.43626610     0.11600
H1231       H  0.85012588  0.43405245  0.39222059     0.07900
C1232       C  0.94242954  0.00789134  0.35048292    -0.11200
C1233       C  0.95939322  0.00689312  0.31802031    -0.10500
C1234       C  0.93874275  0.49164476  0.28786959    -0.01400
C1235       C  0.89954925  0.46992526  0.29394446    -0.11600
C1236       C  0.88224958  0.46999163  0.32596106    -0.10000
H1237       H  0.95964982  0.02155594  0.37260801     0.07900
H1238       H  0.98835542  0.01557113  0.31564934     0.11600
H1239       H  0.88158417  0.45257269  0.27408377     0.11300
H1240       H  0.85208187  0.45459954  0.32842984     0.07900
C1241       C  0.67142717  0.03032375  0.37527559    -0.11200
C1242       C  0.64687718  0.49740512  0.35953468     0.05900
C1243       C  0.64613118  0.46511087  0.37039869    -0.10000
C1244       C  0.66849731  0.46551622  0.39784366    -0.11600
C1245       C  0.69223912  0.49831967  0.41445796    -0.01400
C1246       C  0.69405341  0.03084186  0.40236807    -0.10500
C1247       C  0.62042329  0.49695558  0.33360953     0.06000
H1248       H  0.62727164  0.43949853  0.35855636     0.07900
H1249       H  0.66667180  0.44010890  0.40648239     0.11300
H1250       H  0.71211735  0.05653699  0.41453237     0.11600
H1251       H  0.67262847  0.05551688  0.36685658     0.07900
C1252       C  0.59698402  0.01175103  0.34217702    -0.11200
C1253       C  0.57217682  0.01188094  0.31771168    -0.10500
C1254       C  0.57267471  0.50229690  0.28171603    -0.01400
C1255       C  0.59193790  0.48126132  0.27688765    -0.11600
C1256       C  0.61637017  0.47993377  0.30132000    -0.10000
H1257       H  0.59667660  0.02189307  0.36841845     0.07900
H1258       H  0.55209137  0.01907049  0.32851312     0.11600
H1259       H  0.58877217  0.46527438  0.25407261     0.11300
H1260       H  0.63191733  0.46544177  0.29493838     0.07900
C1261       C  0.64754295  0.04096473  0.10019006    -0.11200
C1262       C  0.61704823  0.50913337  0.11322819     0.05900
C1263       C  0.61108583  0.47553112  0.09977888    -0.10000
C1264       C  0.63660787  0.47350435  0.07547965    -0.11600
C1265       C  0.66853381  0.50515863  0.06406903    -0.01400
C1266       C  0.67288606  0.03904004  0.07567937    -0.10500
C1267       C  0.59897901  0.51034116  0.14704502     0.06000
H1268       H  0.58823363  0.45071173  0.10999269     0.07900
H1269       H  0.63217988  0.44705394  0.06683296     0.11300
H1270       H  0.69696795  0.06399273  0.06729418     0.11600
H1271       H  0.65315715  0.06711917  0.11087428     0.07900
C1272       C  0.61992471  0.01682775  0.17682160    -0.11200
C1273       C  0.60407412  0.01532037  0.20988722    -0.10500
C1274       C  0.56591838  0.50803633  0.21527581    -0.01400
C1275       C  0.54615151  0.50312823  0.18442208    -0.11600
C1276       C  0.56179894  0.50364659  0.15070533    -0.10000
H1277       H  0.64889300  0.02255645  0.17463984     0.07900
H1278       H  0.62377352  0.02247900  0.23062915     0.11600
H1279       H  0.51779807  0.49805773  0.18721387     0.11300
H1280       H  0.54486767  0.49858259  0.12778736     0.07900
C1281       C  0.97469426  0.36721907  0.20136001    -0.11200
C1282       C  0.00076551  0.37583862  0.17362451     0.05900
C1283       C  0.53418141  0.40789099  0.17663827    -0.10000
C1284       C  0.53867426  0.43279710  0.20317947    -0.11600
C1285       C  0.00899987  0.42969737  0.22635225    -0.01400
C1286       C  0.98036350  0.39269954  0.22790921    -0.10500
C1287       C  0.99535770  0.35115692  0.14319618     0.06000
H1288       H  0.55776971  0.41324393  0.15924001     0.07900
H1289       H  0.56665215  0.45229988  0.20479917     0.11300
H1290       H  0.96435020  0.38218691  0.25152017     0.11600
H1291       H  0.95020308  0.34090258  0.20314312     0.07900
C1292       C  0.97458265  0.31313036  0.14650040    -0.11200
C1293       C  0.97149752  0.29062567  0.11785212    -0.10500
C1294       C  0.98986550  0.30569384  0.08575528    -0.01400
C1295       C  0.50988591  0.34343441  0.08209385    -0.11600
C1296       C  0.51205347  0.36590102  0.11024363    -0.10000
H1297       H  0.96155108  0.30059654  0.17134363     0.07900
H1298       H  0.95583332  0.26145709  0.12106696     0.11600
H1299       H  0.52361739  0.35554623  0.05726735     0.11300
H1300       H  0.52703408  0.39495390  0.10615805     0.07900
C1301       C  0.52027777  0.39414281  0.32185281    -0.11200
C1302       C  0.00787588  0.40169740  0.35362862     0.05900
C1303       C  0.00044444  0.43101869  0.35496848    -0.10000
C1304       C  0.00284089  0.45042049  0.32413341    -0.11600
C1305       C  0.00874721  0.43989404  0.29021945    -0.01400
C1306       C  0.52191447  0.41327815  0.29156783    -0.10500
C1307       C  0.00452469  0.37941765  0.38486617     0.06000
H1308       H  0.99327263  0.43930190  0.37980304     0.07900
H1309       H  0.99918735  0.47364733  0.32717148     0.11300
H1310       H  0.53447169  0.40656932  0.26932309     0.11600
H1311       H  0.52874959  0.37314444  0.32030760     0.07900
C1312       C  0.96953116  0.35742120  0.40111076    -0.11200
C1313       C  0.96546934  0.33111599  0.42602591    -0.10500
C1314       C  0.99646492  0.32673263  0.43529981    -0.01400
C1315       C  0.53174070  0.35027160  0.42025527    -0.11600
C1316       C  0.53563748  0.37607265  0.39520383    -0.10000
H1317       H  0.94508450  0.35933169  0.39319500     0.07900
H1318       H  0.93797775  0.31359767  0.43725415     0.11600
H1319       H  0.55629069  0.34790374  0.42682734     0.11300
H1320       H  0.56281908  0.39264759  0.38289152     0.07900
C1321       C  0.51646161  0.16051275  0.37291410    -0.11200
C1322       C  0.98458841  0.14387286  0.35214594     0.05900
C1323       C  0.95283323  0.14735494  0.36218312    -0.10000
C1324       C  0.95319417  0.16730666  0.39208364    -0.11600
C1325       C  0.98534358  0.18428579  0.41244980    -0.01400
C1326       C  0.51694271  0.18064095  0.40248632    -0.10500
C1327       C  0.98473476  0.12199483  0.32112849     0.06000
H1328       H  0.92786810  0.13502958  0.34677643     0.07900
H1329       H  0.92841655  0.16971765  0.39907605     0.11300
H1330       H  0.54198387  0.19296796  0.41782511     0.11600
H1331       H  0.54100663  0.15750937  0.36664267     0.07900
C1332       C  0.51725865  0.13214559  0.30101938    -0.11200
C1333       C  0.52055563  0.10775759  0.27774042    -0.10500
C1334       C  0.99177950  0.07105805  0.27276882    -0.01400
C1335       C  0.95694872  0.06615509  0.28793307    -0.11600
C1336       C  0.95370114  0.08952361  0.31271287    -0.10000
H1337       H  0.54167860  0.15800096  0.30545052     0.07900
H1338       H  0.54915800  0.11704815  0.27089805     0.11600
H1339       H  0.93110571  0.04416117  0.28163072     0.11300
H1340       H  0.92690069  0.08142517  0.32580427     0.07900
C1341       C  0.96454375  0.08964295  0.17613596    -0.11200
C1342       C  0.98491959  0.09150714  0.14565085     0.05900
C1343       C  0.50843055  0.07558317  0.14617104    -0.10000
C1344       C  0.51207268  0.05907684  0.17687044    -0.11600
C1345       C  0.99354294  0.05832329  0.20973362    -0.01400
C1346       C  0.96845442  0.07368052  0.20656945    -0.10500
C1347       C  0.98359821  0.11282131  0.11496443     0.06000
H1348       H  0.52509123  0.07679718  0.12300454     0.07900
H1349       H  0.53346563  0.05172248  0.17464962     0.11300
H1350       H  0.94967919  0.07290265  0.22709966     0.11600
H1351       H  0.94577815  0.10139761  0.17695264     0.07900
C1352       C  0.94982494  0.11188026  0.10547348    -0.11200
C1353       C  0.94961403  0.13633297  0.08059618    -0.10500
C1354       C  0.98321102  0.16242629  0.06475206    -0.01400
C1355       C  0.51664735  0.16201976  0.07289478    -0.11600
C1356       C  0.51678369  0.13745644  0.09754213    -0.10000
H1357       H  0.92363649  0.09282973  0.11801290     0.07900
H1358       H  0.92332036  0.13559803  0.07469342     0.11600
H1359       H  0.54303477  0.18144828  0.06095235     0.11300
H1360       H  0.54317113  0.13897989  0.10424583     0.07900
C1361       C  0.84589542  0.37511716  0.10923306    -0.11200
C1362       C  0.87762345  0.37315656  0.12034839     0.05900
C1363       C  0.88648705  0.34760465  0.10425494    -0.10000
C1364       C  0.86362139  0.32413927  0.07827114    -0.11600
C1365       C  0.83178207  0.32616300  0.06735814    -0.01400
C1366       C  0.82359777  0.35232949  0.08289842    -0.10500
C1367       C  0.89998648  0.39635449  0.14985440     0.06000
H1368       H  0.91037965  0.34493075  0.11258714     0.07900
H1369       H  0.87060131  0.30412795  0.06706348     0.11300
H1370       H  0.79920641  0.35457043  0.07545267     0.11600
H1371       H  0.83784934  0.39395094  0.12129098     0.07900
C1372       C  0.93894712  0.41242487  0.14939491    -0.11200
C1373       C  0.95955541  0.43273550  0.17805727    -0.10500
C1374       C  0.94258047  0.43678489  0.21017912    -0.01400
C1375       C  0.90273957  0.42251497  0.20751690    -0.11600
C1376       C  0.88227750  0.40263362  0.17894725    -0.10000
H1377       H  0.95381080  0.40950054  0.12654756     0.07900
H1378       H  0.98869590  0.44407431  0.17330332     0.11600
H1379       H  0.88641682  0.42499608  0.22897575     0.11300
H1380       H  0.85214473  0.39114633  0.18037931     0.07900
C1381       C  0.82248291  0.33919994  0.35772847    -0.11200
C1382       C  0.85312442  0.33487288  0.34575268     0.05900
C1383       C  0.86285638  0.31180069  0.36420084    -0.10000
C1384       C  0.84308847  0.29447017  0.39506859    -0.11600
C1385       C  0.81362238  0.30040385  0.40819237    -0.01400
C1386       C  0.80287673  0.32210972  0.38858166    -0.10500
C1387       C  0.88025908  0.36191478  0.32095488     0.06000
H1388       H  0.88713349  0.30901382  0.35593738     0.07900
H1389       H  0.85188637  0.27768135  0.40941106     0.11300
H1390       H  0.78002214  0.32683882  0.39764718     0.11600
H1391       H  0.81524620  0.35769934  0.34434185     0.07900
C1392       C  0.90362642  0.39569775  0.33388297    -0.11200
C1393       C  0.92827932  0.42332973  0.31181976    -0.10500
C1394       C  0.93265338  0.42102710  0.27462824    -0.01400
C1395       C  0.90826459  0.38398106  0.26326318    -0.11600
C1396       C  0.88283503  0.35575265  0.28537315    -0.10000
H1397       H  0.90239230  0.40118549  0.36168294     0.07900
H1398       H  0.94222196  0.44656030  0.32676645     0.11600
H1399       H  0.90897813  0.37480394  0.23683578     0.11300
H1400       H  0.86536243  0.32915178  0.27454771     0.07900
C1401       C  0.62289557  0.16153398  0.39597250    -0.11200
C1402       C  0.62728340  0.13257355  0.38192756     0.05900
C1403       C  0.65479728  0.12513246  0.39557445    -0.10000
C1404       C  0.67867342  0.14718475  0.42145057    -0.11600
C1405       C  0.67562494  0.17730093  0.43426999    -0.01400
C1406       C  0.64687936  0.18373630  0.42182838    -0.10500
C1407       C  0.60511212  0.11147620  0.35163738     0.06000
H1408       H  0.65826760  0.10253906  0.38569225     0.07900
H1409       H  0.70019749  0.14121821  0.43066042     0.11300
H1410       H  0.64359329  0.20660588  0.43128972     0.11600
H1411       H  0.60200910  0.16793462  0.38591607     0.07900
C1412       C  0.56645727  0.09652560  0.35145648    -0.11200
C1413       C  0.54595216  0.07518370  0.32319717    -0.10500
C1414       C  0.56252259  0.06825197  0.29168841    -0.01400
C1415       C  0.60220865  0.08288603  0.29550573    -0.11600
C1416       C  0.62268725  0.10435060  0.32328379    -0.10000
H1417       H  0.55173356  0.10094082  0.37359799     0.07900
H1418       H  0.51728715  0.06736137  0.32770258     0.11600
H1419       H  0.61791445  0.07264327  0.28146671     0.11300
H1420       H  0.65254525  0.11367008  0.32337282     0.07900
C1421       C  0.68620613  0.16325544  0.14064795    -0.11200
C1422       C  0.64850596  0.15538703  0.14518886     0.05900
C1423       C  0.63347610  0.16920030  0.12015815    -0.10000
C1424       C  0.65525560  0.18997537  0.09162879    -0.11600
C1425       C  0.69232582  0.19665840  0.08688342    -0.01400
C1426       C  0.70756197  0.18307431  0.11158447    -0.10500
C1427       C  0.62466837  0.13201962  0.17500027     0.06000
H1428       H  0.60463645  0.16345731  0.12201451     0.07900
H1429       H  0.64275009  0.19987910  0.07268711     0.11300
H1430       H  0.73627427  0.18820943  0.10865959     0.11600
H1431       H  0.69973092  0.15452748  0.15951743     0.07900
C1432       C  0.63286623  0.10724325  0.19143397    -0.11200
C1433       C  0.60952923  0.08460393  0.21816956    -0.10500
C1434       C  0.57277729  0.07908458  0.22716286    -0.01400
C1435       C  0.56958456  0.10987383  0.21371830    -0.11600
C1436       C  0.59364222  0.13445732  0.18822389    -0.10000
H1437       H  0.65774005  0.10510750  0.18438262     0.07900
H1438       H  0.62301158  0.07244916  0.23105165     0.11600
H1439       H  0.54654676  0.11505401  0.21832161     0.11300
H1440       H  0.58718875  0.15512739  0.17868442     0.07900
O1441       O  0.73984861  0.20919268  0.54324119    -0.73300
O1442       O  0.79998798  0.26018335  0.95705186    -0.74300
O1443       O  0.80919581  0.27242065  0.53155412    -0.62900
O1444       O  0.73020453  0.19778901  0.96940024    -0.71300
O1445       O  0.70141179  0.23150660  0.96820384    -0.70900
O1446       O  0.77885759  0.30468693  0.53043105    -0.62100
O1447       O  0.77074786  0.29349123  0.95572212    -0.74600
O1448       O  0.70924045  0.24129122  0.54164597    -0.73400
Cu1449     Cu  0.77090112  0.23380636  0.00038301     1.04600
Cu1450     Cu  0.73924287  0.26903495  0.49900548     1.04300
C1451       C  0.71487210  0.21675719  0.55584616     0.92900
C1452       C  0.79403656  0.28408453  0.94200766     0.92000
C1453       C  0.80572083  0.30002547  0.54160728     0.84200
C1454       C  0.70354370  0.20317321  0.95871056     0.90400
O1455       O  0.95561204  0.20291915  0.95725333    -0.73300
O1456       O  0.95734376  0.25941265  0.54396813    -0.74300
O1457       O  0.96033202  0.27250343  0.96990522    -0.62900
O1458       O  0.95384061  0.19035930  0.53131421    -0.71300
O1459       O  0.51571425  0.21720180  0.53150906    -0.70900
O1460       O  0.52200383  0.29592440  0.96834083    -0.62100
O1461       O  0.51939784  0.28659839  0.54179604    -0.74600
O1462       O  0.51731543  0.22669815  0.95783977    -0.73400
Cu1463     Cu  0.95455188  0.23035729  0.00064098     1.04600
Cu1464     Cu  0.52066585  0.25741056  0.99991617     1.04300
C1465       C  0.98609762  0.20563445  0.94397123     0.92900
C1466       C  0.98873886  0.28254295  0.55598606     0.92000
C1467       C  0.99255885  0.29707257  0.95916295     0.84200
C1468       C  0.98413005  0.19114126  0.54125893     0.90400
O1469       O  0.69546967  0.47222508  0.53324867    -0.73300
O1470       O  0.77566156  0.46784614  0.97131405    -0.74300
O1471       O  0.76436602  0.47070459  0.54451475    -0.62900
O1472       O  0.70739371  0.46885887  0.95976317    -0.71300
O1473       O  0.73810076  0.02904461  0.95762080    -0.70900
O1474       O  0.79454539  0.03096286  0.54319541    -0.62100
O1475       O  0.80644515  0.02799951  0.96953992    -0.74600
O1476       O  0.72624979  0.03234163  0.53085138    -0.73400
Cu1477     Cu  0.73462024  0.46782031  0.00238597     1.04600
Cu1478     Cu  0.76736800  0.03216166  0.00025929     1.04300
C1479       C  0.69799840  0.50304780  0.54154357     0.92900
C1480       C  0.80373846  0.49723840  0.96059601     0.92000
C1481       C  0.78892468  0.50087672  0.55679860     0.84200
C1482       C  0.71374669  0.49870546  0.94524554     0.90400
C1483       C  0.50664985  0.45950636  0.75358425    -0.02900
C1484       C  0.99729455  0.04124373  0.74753110    -0.02900
C1485       C  0.54247837  0.04639825  0.75499708    -0.02900
C1486       C  0.54517272  0.50425990  0.75211087    -0.02900
C1487       C  0.95883496  0.99618762  0.75103605    -0.02900
C1488       C  0.96216007  0.45528979  0.74753670    -0.02900
C1489       C  0.87510347  0.00317793  0.70216414    -0.11200
C1490       C  0.88329892  0.50019035  0.66699167     0.05900
C1491       C  0.91473627  0.49623120  0.65855654    -0.10000
C1492       C  0.93745681  0.49525126  0.68491539    -0.11600
C1493       C  0.92977230  0.49640907  0.72176681    -0.01400
C1494       C  0.89761901  0.00177631  0.72860260    -0.10500
C1495       C  0.85891053  0.50081000  0.63913434     0.06000
H1496       H  0.92243894  0.49479348  0.63134933     0.07900
H1497       H  0.96213734  0.49411760  0.67595359     0.11300
H1498       H  0.88829933  0.00602072  0.75382576     0.11600
H1499       H  0.85098061  0.00667595  0.70939280     0.07900
C1500       C  0.84784185  0.02798042  0.63806733    -0.11200
C1501       C  0.82508566  0.02832154  0.61121117    -0.10500
C1502       C  0.81205835  0.50072120  0.58586036     0.00400
C1503       C  0.82264570  0.47331489  0.58739484    -0.11600
C1504       C  0.84639466  0.47379192  0.61337369    -0.10000
H1505       H  0.85748185  0.04931543  0.65753949     0.07900
H1506       H  0.81741934  0.04985267  0.61039736     0.11600
H1507       H  0.81340445  0.45205307  0.56784679     0.11300
H1508       H  0.85501413  0.45300611  0.61345940     0.07900
C1509       C  0.85444802  0.46036236  0.90133254    -0.11200
C1510       C  0.88335455  0.49224532  0.88651678     0.05900
C1511       C  0.88832209  0.02601444  0.89878510    -0.10000
C1512       C  0.86317835  0.02773554  0.92377673    -0.11600
C1513       C  0.83280893  0.49568142  0.93710597    -0.01400
C1514       C  0.82948556  0.46204041  0.92636983    -0.10500
C1515       C  0.90331015  0.49013582  0.85416610     0.06000
H1516       H  0.91015932  0.05094116  0.88745273     0.07900
H1517       H  0.86667587  0.05409680  0.93162303     0.11300
H1518       H  0.80671694  0.43690544  0.93628197     0.11600
H1519       H  0.85013921  0.43405956  0.89223420     0.07900
C1520       C  0.94243448  0.00789279  0.85048481    -0.11200
C1521       C  0.95939567  0.00689305  0.81802097    -0.10500
C1522       C  0.93874317  0.49164623  0.78787121    -0.01400
C1523       C  0.89954947  0.46993024  0.79394778    -0.11600
C1524       C  0.88225268  0.46999776  0.82596622    -0.10000
H1525       H  0.95965662  0.02155555  0.87260940     0.07900
H1526       H  0.98835730  0.01556690  0.81564902     0.11600
H1527       H  0.88158279  0.45257819  0.77408733     0.11300
H1528       H  0.85208498  0.45460764  0.82843715     0.07900
C1529       C  0.67143053  0.03033132  0.87527539    -0.11200
C1530       C  0.64687162  0.49740891  0.85954470     0.05900
C1531       C  0.64612276  0.46511518  0.87041429    -0.10000
C1532       C  0.66849472  0.46552385  0.89785500    -0.11600
C1533       C  0.69224611  0.49833023  0.91445941    -0.01400
C1534       C  0.69406344  0.03085282  0.90236373    -0.10500
C1535       C  0.62041578  0.49695569  0.83361990     0.06000
H1536       H  0.62725731  0.43950096  0.85857894     0.07900
H1537       H  0.66666600  0.44011662  0.90649843     0.11300
H1538       H  0.71213488  0.05655016  0.91452028     0.11600
H1539       H  0.67263396  0.05552406  0.86685156     0.07900
C1540       C  0.59697192  0.01174617  0.84218586    -0.11200
C1541       C  0.57216383  0.01187208  0.81771873    -0.10500
C1542       C  0.57266677  0.50229049  0.78172360    -0.01400
C1543       C  0.59193257  0.48125735  0.77689726    -0.11600
C1544       C  0.61636559  0.47993361  0.80133088    -0.10000
H1545       H  0.59666211  0.02188760  0.86842706     0.07900
H1546       H  0.55207556  0.01905968  0.82851735     0.11600
H1547       H  0.58876831  0.46526994  0.75408233     0.11300
H1548       H  0.63191582  0.46544431  0.79495064     0.07900
C1549       C  0.64754377  0.04095138  0.60019826    -0.11200
C1550       C  0.61704965  0.50912179  0.61323712     0.05900
C1551       C  0.61108565  0.47551967  0.59978610    -0.10000
C1552       C  0.63660644  0.47349298  0.57548534    -0.11600
C1553       C  0.66853269  0.50514712  0.56407523    -0.01400
C1554       C  0.67288580  0.03902675  0.57568641    -0.10500
C1555       C  0.59897902  0.51032921  0.64705295     0.06000
H1556       H  0.58823281  0.45070031  0.60999907     0.07900
H1557       H  0.63217690  0.44704267  0.56683656     0.11300
H1558       H  0.69696754  0.06397947  0.56730100     0.11600
H1559       H  0.65315850  0.06710575  0.61088304     0.07900
C1560       C  0.61992266  0.01681442  0.67682918    -0.11200
C1561       C  0.60407188  0.01531132  0.70989391    -0.10500
C1562       C  0.56591627  0.50802883  0.71528150    -0.01400
C1563       C  0.54615157  0.50312193  0.68442668    -0.11600
C1564       C  0.56179990  0.50363797  0.65071098    -0.10000
H1565       H  0.64889035  0.02254089  0.67464886     0.07900
H1566       H  0.62377078  0.02247037  0.73063594     0.11600
H1567       H  0.51779892  0.49805443  0.68721692     0.11300
H1568       H  0.54487025  0.49857526  0.62779205     0.07900
C1569       C  0.97467915  0.36721434  0.70136084    -0.11200
C1570       C  0.00074968  0.37583156  0.67362507     0.05900
C1571       C  0.53416879  0.40788152  0.67664023    -0.10000
C1572       C  0.53866457  0.43278846  0.70318186    -0.11600
C1573       C  0.00899017  0.42969200  0.72635247    -0.01400
C1574       C  0.98035226  0.39269495  0.72791046    -0.10500
C1575       C  0.99533817  0.35114908  0.64319610     0.06000
H1576       H  0.55775754  0.41323136  0.65924393     0.07900
H1577       H  0.56664387  0.45228780  0.70480687     0.11300
H1578       H  0.96434158  0.38218264  0.75152291     0.11600
H1579       H  0.95018595  0.34089951  0.70314477     0.07900
C1580       C  0.97454756  0.31312288  0.64649579    -0.11200
C1581       C  0.97146238  0.29061769  0.61784775    -0.10500
C1582       C  0.98984631  0.30568466  0.58575637    -0.01400
C1583       C  0.50987931  0.34342466  0.58209852    -0.11600
C1584       C  0.51204622  0.36589204  0.61024701    -0.10000
H1585       H  0.96150441  0.30058877  0.67133546     0.07900
H1586       H  0.95578693  0.26144942  0.62105942     0.11600
H1587       H  0.52362204  0.35553586  0.55727559     0.11300
H1588       H  0.52703716  0.39494470  0.60616305     0.07900
C1589       C  0.52028130  0.39413846  0.82184386    -0.11200
C1590       C  0.00787606  0.40168692  0.85362061     0.05900
C1591       C  0.00043582  0.43100251  0.85496461    -0.10000
C1592       C  0.00282978  0.45040670  0.82413252    -0.11600
C1593       C  0.00874027  0.43988615  0.79021753    -0.01400
C1594       C  0.52191397  0.41327477  0.79156188    -0.10500
C1595       C  0.00452973  0.37940669  0.88485514     0.06000
H1596       H  0.99326105  0.43928066  0.87980056     0.07900
H1597       H  0.99917416  0.47363197  0.82717416     0.11300
H1598       H  0.53447338  0.40657024  0.76931601     0.11600
H1599       H  0.52875830  0.37314387  0.82029519     0.07900
C1600       C  0.96954127  0.35742575  0.90111548    -0.11200
C1601       C  0.96548083  0.33112327  0.92603249    -0.10500
C1602       C  0.99647308  0.32672815  0.93529222    -0.01400
C1603       C  0.53174480  0.35025066  0.92023039    -0.11600
C1604       C  0.53563987  0.37604882  0.89517726    -0.10000
H1605       H  0.94509657  0.35934624  0.89321139     0.07900
H1606       H  0.93799262  0.31361694  0.93727434     0.11600
H1607       H  0.55629170  0.34787205  0.92679074     0.11300
H1608       H  0.56281743  0.39261204  0.88285256     0.07900
C1609       C  0.51645844  0.16051692  0.87290774    -0.11200
C1610       C  0.98458715  0.14387996  0.85213684     0.05900
C1611       C  0.95283256  0.14736438  0.86217186    -0.10000
C1612       C  0.95319182  0.16731395  0.89207416    -0.11600
C1613       C  0.98533873  0.18428786  0.91244439    -0.01400
C1614       C  0.51693776  0.18064242  0.90248144    -0.10500
C1615       C  0.98473464  0.12200010  0.82112088     0.06000
H1616       H  0.92786900  0.13504146  0.84676286     0.07900
H1617       H  0.92841485  0.16972659  0.89906530     0.11300
H1618       H  0.54197752  0.19296637  0.91782229     0.11600
H1619       H  0.54100295  0.15751236  0.86663781     0.07900
C1620       C  0.51726003  0.13214808  0.80101453    -0.11200
C1621       C  0.52055773  0.10775782  0.77773888    -0.10500
C1622       C  0.99178097  0.07105856  0.77276744    -0.01400
C1623       C  0.95695009  0.06615677  0.78793041    -0.11600
C1624       C  0.95370155  0.08952794  0.81270663    -0.10000
H1625       H  0.54168032  0.15800319  0.80544558     0.07900
H1626       H  0.54916040  0.11704646  0.77089906     0.11600
H1627       H  0.93110733  0.04416279  0.78162866     0.11300
H1628       H  0.92690066  0.08143093  0.82579661     0.07900
C1629       C  0.96455886  0.08964805  0.67613081    -0.11200
C1630       C  0.98493434  0.09150818  0.64564641     0.05900
C1631       C  0.50844248  0.07558134  0.64616950    -0.10000
C1632       C  0.51208130  0.05907533  0.67687074    -0.11600
C1633       C  0.99354931  0.05832306  0.70973239    -0.01400
C1634       C  0.96846477  0.07368426  0.70656546    -0.10500
C1635       C  0.98361222  0.11281870  0.61495704     0.06000
H1636       H  0.52510341  0.07679292  0.62300400     0.07900
H1637       H  0.53347422  0.05172083  0.67465249     0.11300
H1638       H  0.94968926  0.07290868  0.72709454     0.11600
H1639       H  0.94579606  0.10140588  0.67694556     0.07900
C1640       C  0.94983782  0.11187572  0.60546711    -0.11200
C1641       C  0.94962434  0.13632804  0.58059112    -0.10500
C1642       C  0.98321973  0.16242268  0.56474613    -0.01400
C1643       C  0.51665721  0.16201598  0.57288493    -0.11600
C1644       C  0.51679653  0.13745329  0.59753212    -0.10000
H1645       H  0.92365028  0.09282485  0.61800776     0.07900
H1646       H  0.92332977  0.13559236  0.57469085     0.11600
H1647       H  0.54304331  0.18144488  0.56094065     0.11300
H1648       H  0.54318545  0.13897812  0.60423454     0.07900
C1649       C  0.84589895  0.37511609  0.60922524    -0.11200
C1650       C  0.87762377  0.37315426  0.62034781     0.05900
C1651       C  0.88648904  0.34760108  0.60425967    -0.10000
C1652       C  0.86362777  0.32413542  0.57827385    -0.11600
C1653       C  0.83179143  0.32616021  0.56735360    -0.01400
C1654       C  0.82360615  0.35232861  0.58288807    -0.10500
C1655       C  0.89998376  0.39635409  0.64985396     0.06000
H1656       H  0.91037944  0.34492648  0.61259757     0.07900
H1657       H  0.87060824  0.30412266  0.56707087     0.11300
H1658       H  0.79921709  0.35457069  0.57543641     0.11600
H1659       H  0.83785153  0.39395036  0.62127944     0.07900
C1660       C  0.93894405  0.41242478  0.64939559    -0.11200
C1661       C  0.95955110  0.43273587  0.67805775    -0.10500
C1662       C  0.94257534  0.43678512  0.71017902    -0.01400
C1663       C  0.90273463  0.42251678  0.70751541    -0.11600
C1664       C  0.88227344  0.40263497  0.67894501    -0.10000
H1665       H  0.95380857  0.40949977  0.62654923     0.07900
H1666       H  0.98869144  0.44407395  0.67330421     0.11600
H1667       H  0.88641180  0.42499920  0.72897392     0.11300
H1668       H  0.85214069  0.39114837  0.68037507     0.07900
C1669       C  0.82247590  0.33919086  0.85771878    -0.11200
C1670       C  0.85312022  0.33486528  0.84574935     0.05900
C1671       C  0.86285375  0.31179849  0.86420510    -0.10000
C1672       C  0.84308498  0.29447292  0.89507426    -0.11600
C1673       C  0.81361744  0.30040739  0.90819251    -0.01400
C1674       C  0.80286982  0.32210673  0.88857403    -0.10500
C1675       C  0.88025637  0.36190747  0.82095257     0.06000
H1676       H  0.88713282  0.30901271  0.85594666     0.07900
H1677       H  0.85188383  0.27768820  0.90942248     0.11300
H1678       H  0.78001357  0.32683542  0.89763483     0.11600
H1679       H  0.81523777  0.35768604  0.84432608     0.07900
C1680       C  0.90362094  0.39569090  0.83388145    -0.11200
C1681       C  0.92827042  0.42332560  0.81181872    -0.10500
C1682       C  0.93264576  0.42102460  0.77462716    -0.01400
C1683       C  0.90825726  0.38397896  0.76326047    -0.11600
C1684       C  0.88283062  0.35574803  0.78536995    -0.10000
H1685       H  0.90238630  0.40117726  0.86168171     0.07900
H1686       H  0.94221090  0.44655584  0.82676632     0.11600
H1687       H  0.90897021  0.37480335  0.73683235     0.11300
H1688       H  0.86535869  0.32914760  0.77454334     0.07900
C1689       C  0.62288142  0.16153618  0.89597292    -0.11200
C1690       C  0.62727502  0.13257792  0.88192975     0.05900
C1691       C  0.65479311  0.12514375  0.89557720    -0.10000
C1692       C  0.67866823  0.14720090  0.92145087    -0.11600
C1693       C  0.67561458  0.17731507  0.93426798    -0.01400
C1694       C  0.64686456  0.18374367  0.92182687    -0.10500
C1695       C  0.60510556  0.11147542  0.85164073     0.06000
H1696       H  0.65826786  0.10255191  0.88569732     0.07900
H1697       H  0.70019573  0.14123939  0.93066073     0.11300
H1698       H  0.64357432  0.20661130  0.93128720     0.11600
H1699       H  0.60199131  0.16793141  0.88591637     0.07900
C1700       C  0.56645114  0.09652495  0.85145738    -0.11200
C1701       C  0.54594780  0.07518085  0.82319908    -0.10500
C1702       C  0.56252028  0.06824665  0.79169219    -0.01400
C1703       C  0.60220344  0.08287865  0.79551475    -0.11600
C1704       C  0.62268226  0.10434418  0.82329028    -0.10000
H1705       H  0.55172592  0.10094249  0.87359653     0.07900
H1706       H  0.51728268  0.06735915  0.82770219     0.11600
H1707       H  0.61791135  0.07263935  0.78147097     0.11300
H1708       H  0.65254012  0.11366416  0.82338161     0.07900
C1709       C  0.68621632  0.16322754  0.64064473    -0.11200
C1710       C  0.64852356  0.15538205  0.64519859     0.05900
C1711       C  0.63350415  0.16921820  0.62017929    -0.10000
C1712       C  0.65528572  0.18999237  0.59165050    -0.11600
C1713       C  0.69234662  0.19665060  0.58689118    -0.01400
C1714       C  0.70757288  0.18304438  0.61158032    -0.10500
C1715       C  0.62468189  0.13201445  0.67500998     0.06000
H1716       H  0.60466998  0.16349358  0.62204190     0.07900
H1717       H  0.64278747  0.19991410  0.57271893     0.11300
H1718       H  0.73627821  0.18816019  0.60864552     0.11600
H1719       H  0.69973599  0.15448310  0.65950391     0.07900
C1720       C  0.63287388  0.10723364  0.69144640    -0.11200
C1721       C  0.60953131  0.08459654  0.71817922    -0.10500
C1722       C  0.57278096  0.07907888  0.72716816    -0.01400
C1723       C  0.56959278  0.10987036  0.71372202    -0.11600
C1724       C  0.59365599  0.13445457  0.68823147    -0.10000
H1725       H  0.65774649  0.10509467  0.68439921     0.07900
H1726       H  0.62300869  0.07243826  0.73106923     0.11600
H1727       H  0.54655549  0.11505177  0.71832234     0.11300
H1728       H  0.58720576  0.15512745  0.67869369     0.07900
O1729       O  0.73984989  0.70914992  0.04325425    -0.73300
O1730       O  0.80006139  0.76015904  0.45708594    -0.74300
O1731       O  0.80921097  0.77237262  0.03159989    -0.62900
O1732       O  0.73028103  0.69773359  0.46941290    -0.71300
O1733       O  0.70146704  0.73143164  0.46822025    -0.70900
O1734       O  0.77888183  0.80464688  0.03046718    -0.62100
O1735       O  0.77079379  0.79344185  0.45575881    -0.74600
O1736       O  0.70924916  0.74125574  0.04164898    -0.73400
Cu1737     Cu  0.77095924  0.73375570  0.50040967     1.04600
Cu1738     Cu  0.73927008  0.76900131  0.99902470     1.04300
C1739       C  0.71486919  0.71671539  0.05584796     0.92900
C1740       C  0.79410201  0.78405997  0.44204884     0.92000
C1741       C  0.80573993  0.79997942  0.04165076     0.84200
C1742       C  0.70361260  0.70310491  0.45872299     0.90400
O1743       O  0.95566979  0.70292287  0.45727257    -0.73300
O1744       O  0.95734198  0.75946426  0.04393922    -0.74300
O1745       O  0.96034447  0.77249833  0.46986217    -0.62900
O1746       O  0.95386863  0.69040572  0.03134167    -0.71300
O1747       O  0.51574171  0.71726234  0.03156396    -0.70900
O1748       O  0.52201759  0.79593398  0.46833453    -0.62100
O1749       O  0.51939624  0.78666357  0.04179335    -0.74600
O1750       O  0.51737387  0.72671988  0.45788474    -0.73400
Cu1751     Cu  0.95457061  0.73037267  0.50063458     1.04600
Cu1752     Cu  0.52068494  0.75744934  0.49994327     1.04300
C1753       C  0.98616406  0.70564272  0.44400905     0.92900
C1754       C  0.98872793  0.78260844  0.05596295     0.92000
C1755       C  0.99257461  0.79706748  0.45912558     0.84200
C1756       C  0.98415705  0.69119594  0.04130354     0.90400
O1757       O  0.69546638  0.97230882  0.03320766    -0.73300
O1758       O  0.77567908  0.96791305  0.47130361    -0.74300
O1759       O  0.76435388  0.97076783  0.04451019    -0.62900
O1760       O  0.70741763  0.96892272  0.45972828    -0.71300
O1761       O  0.73806038  0.52895390  0.45763646    -0.70900
O1762       O  0.79454701  0.53091760  0.04319001    -0.62100
O1763       O  0.80640827  0.52791164  0.46952866    -0.74600
O1764       O  0.72625172  0.53228196  0.03086863    -0.73400
Cu1765     Cu  0.73462456  0.96787996  0.50236277     1.04600
Cu1766     Cu  0.76734445  0.53207961  0.50025948     1.04300
C1767       C  0.69799092  0.00313108  0.04150062     0.92900
C1768       C  0.80375637  0.99730752  0.46058943     0.92000
C1769       C  0.78891571  0.00093049  0.05680648     0.84200
C1770       C  0.71377422  0.99877268  0.44521731     0.90400
C1771       C  0.50668851  0.95955907  0.25358403    -0.02900
C1772       C  0.99731615  0.54123130  0.24754089    -0.02900
C1773       C  0.54249292  0.54636464  0.25500020    -0.02900
C1774       C  0.54519385  0.00432083  0.25208029    -0.02900
C1775       C  0.95884349  0.49618045  0.25103365    -0.02900
C1776       C  0.96218356  0.95531180  0.24754905    -0.02900
C1777       C  0.87516143  0.50324633  0.20215329    -0.11200
C1778       C  0.88324112  0.00012385  0.16700080     0.05900
C1779       C  0.91469377  0.99619047  0.15856114    -0.10000
C1780       C  0.93742880  0.99522866  0.18491707    -0.11600
C1781       C  0.92974930  0.99638687  0.22177001    -0.01400
C1782       C  0.89766158  0.50182225  0.22859516    -0.10500
C1783       C  0.85885806  0.00076602  0.13914588     0.06000
H1784       H  0.92240142  0.99476658  0.13135277     0.07900
H1785       H  0.96211730  0.99411348  0.17595083     0.11300
H1786       H  0.88834663  0.50607017  0.25381954     0.11600
H1787       H  0.85104893  0.50676332  0.20937725     0.07900
C1788       C  0.84792222  0.52803816  0.13802035    -0.11200
C1789       C  0.82514946  0.52835095  0.11116800    -0.10500
C1790       C  0.81203875  0.00074595  0.08586730     0.00400
C1791       C  0.82265461  0.97335615  0.08735269    -0.11600
C1792       C  0.84638549  0.97379831  0.11333486    -0.10000
H1793       H  0.85759436  0.54940480  0.15746026     0.07900
H1794       H  0.81750494  0.54989565  0.11032198     0.11600
H1795       H  0.81344779  0.95213402  0.06776473     0.11300
H1796       H  0.85502292  0.95302381  0.11338229     0.07900
C1797       C  0.85448543  0.96043237  0.40135130    -0.11200
C1798       C  0.88337655  0.99231144  0.38651444     0.05900
C1799       C  0.88830239  0.52593079  0.39880775    -0.10000
C1800       C  0.86315781  0.52764602  0.42380048    -0.11600
C1801       C  0.83282794  0.99575441  0.43709711    -0.01400
C1802       C  0.82952123  0.96211371  0.42638379    -0.10500
C1803       C  0.90332824  0.99018479  0.35416789     0.06000
H1804       H  0.91015682  0.55086184  0.38749917     0.07900
H1805       H  0.86667253  0.55400636  0.43167322     0.11300
H1806       H  0.80676523  0.93697952  0.43631270     0.11600
H1807       H  0.85018957  0.93412759  0.39227305     0.07900
C1808       C  0.94240585  0.50784511  0.35048524    -0.11200
C1809       C  0.95938017  0.50686951  0.31802254    -0.10500
C1810       C  0.93874620  0.99165559  0.28787613    -0.01400
C1811       C  0.89955644  0.96993036  0.29396630    -0.11600
C1812       C  0.88226583  0.97002039  0.32598161    -0.10000
H1813       H  0.95961923  0.52149889  0.37261742     0.07900
H1814       H  0.98834431  0.51556234  0.31565779     0.11600
H1815       H  0.88158850  0.95255654  0.27411771     0.11300
H1816       H  0.85209904  0.95462612  0.32846081     0.07900
C1817       C  0.67146529  0.53025196  0.37523381    -0.11200
C1818       C  0.64691394  0.99748958  0.35950841     0.05900
C1819       C  0.64625013  0.96521078  0.37030246    -0.10000
C1820       C  0.66862193  0.96561646  0.39774404    -0.11600
C1821       C  0.69228459  0.99840500  0.41442581    -0.01400
C1822       C  0.69408855  0.53076909  0.40232976    -0.10500
C1823       C  0.62046080  0.99703638  0.33357714     0.06000
H1824       H  0.62744805  0.93960618  0.35841039     0.07900
H1825       H  0.66686197  0.94021979  0.40632799     0.11300
H1826       H  0.71221649  0.55647626  0.41443916     0.11600
H1827       H  0.67272638  0.55545537  0.36676039     0.07900
C1828       C  0.59697175  0.51169831  0.34220687    -0.11200
C1829       C  0.57215388  0.51181984  0.31774947    -0.10500
C1830       C  0.57271830  0.00238145  0.28167403    -0.01400
C1831       C  0.59201822  0.98138170  0.27683310    -0.11600
C1832       C  0.61644761  0.98005481  0.30126975    -0.10000
H1833       H  0.59669148  0.52186777  0.36844094     0.07900
H1834       H  0.55208357  0.51902905  0.32855136     0.11600
H1835       H  0.58887206  0.96540816  0.25401067     0.11300
H1836       H  0.63201994  0.96558969  0.29487846     0.07900
C1837       C  0.64761458  0.54089959  0.10029294    -0.11200
C1838       C  0.61698346  0.00919573  0.11313338     0.05900
C1839       C  0.61103598  0.97559490  0.09969136    -0.10000
C1840       C  0.63657284  0.97357228  0.07540607    -0.11600
C1841       C  0.66850024  0.00522844  0.06400073    -0.01400
C1842       C  0.67294251  0.53897134  0.07576857    -0.10500
C1843       C  0.59892940  0.01040081  0.14696406     0.06000
H1844       H  0.58818806  0.95077274  0.10990706     0.07900
H1845       H  0.63215811  0.94712265  0.06677152     0.11300
H1846       H  0.69702806  0.56392153  0.06738438     0.11600
H1847       H  0.65324013  0.56705357  0.11098653     0.07900
C1848       C  0.61995114  0.51675575  0.17691773    -0.11200
C1849       C  0.60407972  0.51525717  0.20997152    -0.10500
C1850       C  0.56591226  0.00808895  0.21522800    -0.01400
C1851       C  0.54611914  0.00316079  0.18438813    -0.11600
C1852       C  0.56174341  0.00368263  0.15065669    -0.10000
H1853       H  0.64891677  0.52247268  0.17475733     0.07900
H1854       H  0.62375736  0.52241624  0.23073277     0.11600
H1855       H  0.51776588  0.99808485  0.18720162     0.11300
H1856       H  0.54479054  0.99860649  0.12775277     0.07900
C1857       C  0.97472318  0.86725275  0.20139360    -0.11200
C1858       C  0.00075628  0.87588404  0.17362191     0.05900
C1859       C  0.53417054  0.90794445  0.17660768    -0.10000
C1860       C  0.53868782  0.93284806  0.20316001    -0.11600
C1861       C  0.00902991  0.92974149  0.22635881    -0.01400
C1862       C  0.98041242  0.89273649  0.22794542    -0.10500
C1863       C  0.99531495  0.85120654  0.14318228     0.06000
H1864       H  0.55773691  0.91330613  0.15917547     0.07900
H1865       H  0.56666606  0.95235597  0.20476647     0.11300
H1866       H  0.96442286  0.88222921  0.25157148     0.11600
H1867       H  0.95024357  0.84092899  0.20319646     0.07900
C1868       C  0.97459387  0.81317777  0.14649893    -0.11200
C1869       C  0.97150533  0.79067657  0.11784584    -0.10500
C1870       C  0.98981197  0.80575133  0.08572792    -0.01400
C1871       C  0.50976099  0.84349495  0.08204967    -0.11600
C1872       C  0.51193550  0.86595688  0.11020866    -0.10000
H1873       H  0.96161742  0.80064151  0.17135753     0.07900
H1874       H  0.95589460  0.76150647  0.12107435     0.11600
H1875       H  0.52344266  0.85561157  0.05720822     0.11300
H1876       H  0.52687270  0.89501119  0.10611863     0.07900
C1877       C  0.52042973  0.89424815  0.32182218    -0.11200
C1878       C  0.00797265  0.90174108  0.35359833     0.05900
C1879       C  0.00048710  0.93102911  0.35495771    -0.10000
C1880       C  0.00288099  0.95045161  0.32413786    -0.11600
C1881       C  0.00881581  0.93995962  0.29021732    -0.01400
C1882       C  0.52204897  0.91339311  0.29155202    -0.10500
C1883       C  0.00460860  0.87942667  0.38481290     0.06000
H1884       H  0.99327852  0.93927256  0.37979651     0.07900
H1885       H  0.99920687  0.97366549  0.32719587     0.11300
H1886       H  0.53463421  0.90672447  0.26930208     0.11600
H1887       H  0.52894493  0.87328115  0.32026046     0.07900
C1888       C  0.96962193  0.85748624  0.40109799    -0.11200
C1889       C  0.96553663  0.83116438  0.42600411    -0.10500
C1890       C  0.99650380  0.82671286  0.43523207    -0.01400
C1891       C  0.53177408  0.85018575  0.42013609    -0.11600
C1892       C  0.53569328  0.87600189  0.39509478    -0.10000
H1893       H  0.94519544  0.85945694  0.39322529     0.07900
H1894       H  0.93805055  0.81369603  0.43727174     0.11600
H1895       H  0.55630178  0.84776011  0.42666741     0.11300
H1896       H  0.56287031  0.89253279  0.38275319     0.07900
C1897       C  0.51653536  0.66049699  0.37297392    -0.11200
C1898       C  0.98467262  0.64387442  0.35218932     0.05900
C1899       C  0.95292560  0.64737791  0.36220713    -0.10000
C1900       C  0.95328100  0.66732859  0.39210580    -0.11600
C1901       C  0.98541752  0.68428871  0.41249102    -0.01400
C1902       C  0.51701119  0.68062579  0.40254648    -0.10500
C1903       C  0.98481550  0.62199237  0.32117298     0.06000
H1904       H  0.92797025  0.63506980  0.34678604     0.07900
H1905       H  0.92850868  0.66975551  0.39908082     0.11300
H1906       H  0.54204256  0.69293975  0.41789952     0.11600
H1907       H  0.54107438  0.65747926  0.36671478     0.07900
C1908       C  0.51733902  0.63213040  0.30106754    -0.11200
C1909       C  0.52061655  0.60774277  0.27777290    -0.10500
C1910       C  0.99182449  0.57105088  0.27279064    -0.01400
C1911       C  0.95700108  0.56616492  0.28795668    -0.11600
C1912       C  0.95376966  0.58953454  0.31274610    -0.10000
H1913       H  0.54176948  0.65797504  0.30550840     0.07900
H1914       H  0.54921653  0.61702320  0.27092489     0.11600
H1915       H  0.93115141  0.54418250  0.28164922     0.11300
H1916       H  0.92697054  0.58144700  0.32583601     0.07900
C1917       C  0.96460280  0.58967973  0.17615844    -0.11200
C1918       C  0.98495993  0.59152741  0.14566431     0.05900
C1919       C  0.50845127  0.57558000  0.14617564    -0.10000
C1920       C  0.51208767  0.55906269  0.17687299    -0.11600
C1921       C  0.99357482  0.55832478  0.20974468    -0.01400
C1922       C  0.96851067  0.57371101  0.20659011    -0.10500
C1923       C  0.98363502  0.61284530  0.11497849     0.06000
H1924       H  0.52509668  0.57677875  0.12300244     0.07900
H1925       H  0.53345577  0.55167328  0.17464268     0.11300
H1926       H  0.94975080  0.57295198  0.22712709     0.11600
H1927       H  0.94585344  0.60145274  0.17698352     0.07900
C1928       C  0.94986371  0.61191973  0.10550476    -0.11200
C1929       C  0.94965135  0.63638218  0.08063859    -0.10500
C1930       C  0.98324549  0.66247382  0.06478923    -0.01400
C1931       C  0.51667907  0.66205023  0.07291039    -0.11600
C1932       C  0.51681572  0.63747363  0.09754418    -0.10000
H1933       H  0.92367766  0.59287422  0.11805082     0.07900
H1934       H  0.92335897  0.63565666  0.07474964     0.11600
H1935       H  0.54306401  0.68147315  0.06095923     0.11300
H1936       H  0.54320023  0.63898127  0.10422912     0.07900
C1937       C  0.84594892  0.87509780  0.10923938    -0.11200
C1938       C  0.87764619  0.87310447  0.12039153     0.05900
C1939       C  0.88648934  0.84752391  0.10433282    -0.10000
C1940       C  0.86362680  0.82405793  0.07834706    -0.11600
C1941       C  0.83181291  0.82611071  0.06739919    -0.01400
C1942       C  0.82365456  0.85230871  0.08290413    -0.10500
C1943       C  0.90000179  0.89630980  0.14989395     0.06000
H1944       H  0.91036295  0.84483146  0.11269254     0.07900
H1945       H  0.87058822  0.80402388  0.06716594     0.11300
H1946       H  0.79928641  0.85457583  0.07542835     0.11600
H1947       H  0.83792817  0.89396262  0.12126833     0.07900
C1948       C  0.93896159  0.91240151  0.14942585    -0.11200
C1949       C  0.95956702  0.93273920  0.17807575    -0.10500
C1950       C  0.94259300  0.93678767  0.21019835    -0.01400
C1951       C  0.90274859  0.92249491  0.20754338    -0.11600
C1952       C  0.88228769  0.90259104  0.17898165    -0.10000
H1953       H  0.95382617  0.90947605  0.12657955     0.07900
H1954       H  0.98870553  0.94409563  0.17331127     0.11600
H1955       H  0.88642465  0.92497624  0.22900186     0.11300
H1956       H  0.85215342  0.89109088  0.18041253     0.07900
C1957       C  0.82251368  0.83919520  0.35777634    -0.11200
C1958       C  0.85317969  0.83490636  0.34580580     0.05900
C1959       C  0.86295327  0.81187212  0.36426794    -0.10000
C1960       C  0.84319427  0.79453152  0.39513595    -0.11600
C1961       C  0.81369217  0.80041465  0.40824581    -0.01400
C1962       C  0.80291470  0.82209339  0.38862914    -0.10500
C1963       C  0.88029300  0.86195106  0.32099523     0.06000
H1964       H  0.88725228  0.80912008  0.35601166     0.07900
H1965       H  0.85202196  0.77777092  0.40948678     0.11300
H1966       H  0.78003517  0.82678755  0.39768666     0.11600
H1967       H  0.81524616  0.85766893  0.34438263     0.07900
C1968       C  0.90365208  0.89574084  0.33391261    -0.11200
C1969       C  0.92831285  0.92336315  0.31184475    -0.10500
C1970       C  0.93268954  0.92104988  0.27465426    -0.01400
C1971       C  0.90831275  0.88399666  0.26330153    -0.11600
C1972       C  0.88288238  0.85577407  0.28541817    -0.10000
H1973       H  0.90241320  0.90123873  0.36170947     0.07900
H1974       H  0.94225456  0.94659557  0.32678809     0.11600
H1975       H  0.90903311  0.87481244  0.23687852     0.11300
H1976       H  0.86542142  0.82916579  0.27460203     0.07900
C1977       C  0.62298555  0.66147426  0.39594673    -0.11200
C1978       C  0.62737323  0.63250830  0.38191491     0.05900
C1979       C  0.65487780  0.62506514  0.39558218    -0.10000
C1980       C  0.67874089  0.64711908  0.42146879    -0.11600
C1981       C  0.67569197  0.67724157  0.43427343    -0.01400
C1982       C  0.64695614  0.68367777  0.42180952    -0.10500
C1983       C  0.60519145  0.61139921  0.35163113     0.06000
H1984       H  0.65834747  0.60246676  0.38571284     0.07900
H1985       H  0.70025560  0.64114912  0.43069864     0.11300
H1986       H  0.64366796  0.70655003  0.43125844     0.11600
H1987       H  0.60210645  0.66787720  0.38587576     0.07900
C1988       C  0.56653983  0.59648325  0.35145295    -0.11200
C1989       C  0.54601454  0.57515131  0.32320005    -0.10500
C1990       C  0.56256534  0.56820696  0.29168285    -0.01400
C1991       C  0.60224177  0.58280618  0.29549595    -0.11600
C1992       C  0.62274623  0.60424284  0.32327310    -0.10000
H1993       H  0.55183077  0.60091663  0.37359697     0.07900
H1994       H  0.51735280  0.56733905  0.32771412     0.11600
H1995       H  0.61792613  0.57255318  0.28141754     0.11300
H1996       H  0.65259831  0.61353314  0.32336197     0.07900
C1997       C  0.68620868  0.66324429  0.14067058    -0.11200
C1998       C  0.64849914  0.65534828  0.14518261     0.05900
C1999       C  0.63346512  0.66913749  0.12013346    -0.10000
C2000       C  0.65525012  0.68990634  0.09160316    -0.11600
C2001       C  0.69232991  0.69660847  0.08688296    -0.01400
C2002       C  0.70757051  0.68305627  0.11160905    -0.10500
C2003       C  0.62466017  0.63197286  0.17498495     0.06000
H2004       H  0.60462054  0.66337884  0.12197911     0.07900
H2005       H  0.64274418  0.69979111  0.07264318     0.11300
H2006       H  0.73629104  0.68821230  0.10870541     0.11600
H2007       H  0.69973401  0.65454036  0.15956248     0.07900
C2008       C  0.63285829  0.60718729  0.19140570    -0.11200
C2009       C  0.60953099  0.58455934  0.21814479    -0.10500
C2010       C  0.57278948  0.57904058  0.22716020    -0.01400
C2011       C  0.56960206  0.60984150  0.21372763    -0.11600
C2012       C  0.59364435  0.63441650  0.18822179    -0.10000
H2013       H  0.65772954  0.60505235  0.18433923     0.07900
H2014       H  0.62303239  0.57241977  0.23104042     0.11600
H2015       H  0.54657763  0.61503684  0.21835048     0.11300
H2016       H  0.58719112  0.65508949  0.17868569     0.07900
O2017       O  0.73986819  0.70913886  0.54325701    -0.73300
O2018       O  0.80005101  0.76016670  0.95708854    -0.74300
O2019       O  0.80922487  0.77236760  0.53159777    -0.62900
O2020       O  0.73026658  0.69774872  0.96941218    -0.71300
O2021       O  0.70145712  0.73145073  0.96821383    -0.70900
O2022       O  0.77889050  0.80463692  0.53046471    -0.62100
O2023       O  0.77079054  0.79345592  0.95575734    -0.74600
O2024       O  0.70926561  0.74124286  0.54165412    -0.73400
Cu2025     Cu  0.77094454  0.73376552  0.00041003     1.04600
Cu2026     Cu  0.73927936  0.76898649  0.49902728     1.04300
C2027       C  0.71488802  0.71670410  0.55585320     0.92900
C2028       C  0.79409592  0.78406910  0.94204920     0.92000
C2029       C  0.80575096  0.79997329  0.54164762     0.84200
C2030       C  0.70360061  0.70312217  0.95871945     0.90400
O2031       O  0.95566794  0.70292642  0.95727035    -0.73300
O2032       O  0.95732828  0.75945328  0.54393948    -0.74300
O2033       O  0.96035307  0.77250424  0.96986229    -0.62900
O2034       O  0.95387027  0.69040030  0.53134148    -0.71300
O2035       O  0.51574339  0.71726264  0.53156371    -0.70900
O2036       O  0.52202579  0.79593258  0.96832944    -0.62100
O2037       O  0.51938263  0.78665798  0.54179786    -0.74600
O2038       O  0.51737132  0.72671582  0.95788343    -0.73400
Cu2039     Cu  0.95457533  0.73037939  0.00063422     1.04600
Cu2040     Cu  0.52068934  0.75744891  0.99994051     1.04300
C2041       C  0.98616084  0.70564317  0.94400609     0.92900
C2042       C  0.98871201  0.78259944  0.55596520     0.92000
C2043       C  0.99258365  0.79706841  0.95912184     0.84200
C2044       C  0.98416054  0.69119288  0.54130170     0.90400
O2045       O  0.69546249  0.97229620  0.53320841    -0.73300
O2046       O  0.77568695  0.96792364  0.97130929    -0.74300
O2047       O  0.76435298  0.97075863  0.54450584    -0.62900
O2048       O  0.70742700  0.96893620  0.95972953    -0.71300
O2049       O  0.73807135  0.52896637  0.95763560    -0.70900
O2050       O  0.79454383  0.53090901  0.54318450    -0.62100
O2051       O  0.80641871  0.52792199  0.96953459    -0.74600
O2052       O  0.72624694  0.53227059  0.53087000    -0.73400
Cu2053     Cu  0.73463017  0.96789165  0.00236530     1.04600
Cu2054     Cu  0.76735201  0.53209047  0.00026185     1.04300
C2055       C  0.69798727  0.00311823  0.54150274     0.92900
C2056       C  0.80376597  0.99731763  0.96059649     0.92000
C2057       C  0.78891464  0.00092225  0.55680093     0.84200
C2058       C  0.71378390  0.99878593  0.94521790     0.90400
C2059       C  0.50668205  0.95955476  0.75358446    -0.02900
C2060       C  0.99731675  0.54122984  0.74754137    -0.02900
C2061       C  0.54249148  0.54636016  0.75500381    -0.02900
C2062       C  0.54518979  0.00431530  0.75208379    -0.02900
C2063       C  0.95884172  0.49618041  0.75103443    -0.02900
C2064       C  0.96217818  0.95531053  0.74754916    -0.02900
C2065       C  0.87516317  0.50325324  0.70215320    -0.11200
C2066       C  0.88324238  0.00012897  0.66700037     0.05900
C2067       C  0.91469452  0.99619451  0.65856161    -0.10000
C2068       C  0.93742899  0.99523249  0.68491792    -0.11600
C2069       C  0.92974910  0.99639064  0.72177075    -0.01400
C2070       C  0.89766177  0.50182678  0.72859575    -0.10500
C2071       C  0.85885823  0.00076758  0.63914446     0.06000
H2072       H  0.92240185  0.99476912  0.63135344     0.07900
H2073       H  0.96211699  0.99411601  0.67595216     0.11300
H2074       H  0.88834556  0.50607296  0.75382020     0.11600
H2075       H  0.85105138  0.50677164  0.70937664     0.07900
C2076       C  0.84792436  0.52804115  0.63801371    -0.11200
C2077       C  0.82515157  0.52835075  0.61115973    -0.10500
C2078       C  0.81203865  0.00074088  0.58586251     0.00400
C2079       C  0.82265349  0.97335068  0.58735317    -0.11600
C2080       C  0.84638448  0.97379617  0.61333697    -0.10000
H2081       H  0.85759825  0.54941105  0.65745021     0.07900
H2082       H  0.81750892  0.54989653  0.61030921     0.11600
H2083       H  0.81344575  0.95212561  0.56776821     0.11300
H2084       H  0.85502154  0.95302158  0.61338844     0.07900
C2085       C  0.85449634  0.96043973  0.90136185    -0.11200
C2086       C  0.88338461  0.99231791  0.88652042     0.05900
C2087       C  0.88831108  0.52593814  0.89881154    -0.10000
C2088       C  0.86316769  0.52765464  0.92380513    -0.11600
C2089       C  0.83283853  0.99576347  0.93710556    -0.01400
C2090       C  0.82953371  0.96212242  0.92639581    -0.10500
C2091       C  0.90333330  0.99018933  0.85417194     0.06000
H2092       H  0.91016323  0.55086848  0.88749957     0.07900
H2093       H  0.86668107  0.55401535  0.93167471     0.11300
H2094       H  0.80677966  0.93698870  0.93632809     0.11600
H2095       H  0.85020111  0.93413451  0.89228580     0.07900
C2096       C  0.94241186  0.50784639  0.85048730    -0.11200
C2097       C  0.95938318  0.50686903  0.81802323    -0.10500
C2098       C  0.93874651  0.99165753  0.78787750    -0.01400
C2099       C  0.89955649  0.96993562  0.79396898    -0.11600
C2100       C  0.88226828  0.97002654  0.82598601    -0.10000
H2101       H  0.95962738  0.52149837  0.87261884     0.07900
H2102       H  0.98834679  0.51555759  0.81565707     0.11600
H2103       H  0.88158722  0.95256243  0.77412053     0.11300
H2104       H  0.85210149  0.95463412  0.82846701     0.07900
C2105       C  0.67146786  0.53025861  0.87523423    -0.11200
C2106       C  0.64690889  0.99749415  0.85951808     0.05900
C2107       C  0.64624130  0.96521572  0.87031864    -0.10000
C2108       C  0.66861861  0.96562478  0.89775626    -0.11600
C2109       C  0.69229122  0.99841639  0.91442784    -0.01400
C2110       C  0.69409831  0.53077913  0.90232550    -0.10500
C2111       C  0.62045401  0.99703720  0.83358684     0.06000
H2112       H  0.62743293  0.93960915  0.85843391     0.07900
H2113       H  0.66685489  0.94022808  0.90634540     0.11300
H2114       H  0.71223353  0.55648840  0.91442735     0.11600
H2115       H  0.67273047  0.55546158  0.86675664     0.07900
C2116       C  0.59695942  0.51169335  0.84221639    -0.11200
C2117       C  0.57214085  0.51181138  0.81775722    -0.10500
C2118       C  0.57271079  0.00237513  0.78168077    -0.01400
C2119       C  0.59201376  0.98137825  0.77684186    -0.11600
C2120       C  0.61644403  0.98005546  0.80127988    -0.10000
H2121       H  0.59667698  0.52186234  0.86845022     0.07900
H2122       H  0.55206794  0.51901893  0.82855631     0.11600
H2123       H  0.58886930  0.96540430  0.75401947     0.11300
H2124       H  0.63201977  0.96559335  0.79489006     0.07900
C2125       C  0.64761716  0.54088793  0.60030355    -0.11200
C2126       C  0.61698407  0.00918240  0.61314115     0.05900
C2127       C  0.61103620  0.97558153  0.59969894    -0.10000
C2128       C  0.63657195  0.97355897  0.57541231    -0.11600
C2129       C  0.66849869  0.00521522  0.56400609    -0.01400
C2130       C  0.67294392  0.53895979  0.57577787    -0.10500
C2131       C  0.59892887  0.01038795  0.64697079     0.06000
H2132       H  0.58818838  0.95075940  0.60991472     0.07900
H2133       H  0.63215660  0.94710942  0.56677679     0.11300
H2134       H  0.69703018  0.56390984  0.56739462     0.11600
H2135       H  0.65324407  0.56704166  0.61099888     0.07900
C2136       C  0.61994935  0.51674290  0.67692660    -0.11200
C2137       C  0.60407698  0.51524675  0.70997922    -0.10500
C2138       C  0.56591030  0.00808177  0.71523268    -0.01400
C2139       C  0.54611921  0.00315476  0.68439172    -0.11600
C2140       C  0.56174407  0.00367373  0.65066124    -0.10000
H2141       H  0.64891455  0.52245805  0.67476783     0.07900
H2142       H  0.62375424  0.52240602  0.73074074     0.11600
H2143       H  0.51776688  0.99808214  0.68720373     0.11300
H2144       H  0.54479263  0.99859869  0.62775644     0.07900
C2145       C  0.97470740  0.86724854  0.70139374    -0.11200
C2146       C  0.00073944  0.87587760  0.67362151     0.05900
C2147       C  0.53415721  0.90793542  0.67660873    -0.10000
C2148       C  0.53867777  0.93283967  0.70316181    -0.11600
C2149       C  0.00902006  0.92973641  0.72635854    -0.01400
C2150       C  0.98040090  0.89273223  0.72794627    -0.10500
C2151       C  0.99529411  0.85119931  0.64318126     0.06000
H2152       H  0.55772386  0.91329376  0.65917837     0.07900
H2153       H  0.56665763  0.95234400  0.70477392     0.11300
H2154       H  0.96441412  0.88222526  0.75157393     0.11600
H2155       H  0.95022567  0.84092647  0.70319734     0.07900
C2156       C  0.97455875  0.81317085  0.64649406    -0.11200
C2157       C  0.97146999  0.79066898  0.61784138    -0.10500
C2158       C  0.98979119  0.80574236  0.58572833    -0.01400
C2159       C  0.50975157  0.84348549  0.58205297    -0.11600
C2160       C  0.51192565  0.86594836  0.61021062    -0.10000
H2161       H  0.96157202  0.80063450  0.67134958     0.07900
H2162       H  0.95584905  0.76149915  0.62106732     0.11600
H2163       H  0.52344351  0.85560132  0.55721466     0.11300
H2164       H  0.52687245  0.89500249  0.60612200     0.07900
C2165       C  0.52043372  0.89424486  0.82181311    -0.11200
C2166       C  0.00797338  0.90173165  0.85359010     0.05900
C2167       C  0.00047839  0.93101361  0.85495332    -0.10000
C2168       C  0.00286948  0.95043816  0.82413629    -0.11600
C2169       C  0.00880888  0.93995222  0.79021486    -0.01400
C2170       C  0.52204868  0.91339048  0.79154577    -0.10500
C2171       C  0.00461442  0.87941703  0.88480189     0.06000
H2172       H  0.99326657  0.93925194  0.87979338     0.07900
H2173       H  0.99919291  0.97365031  0.82719763     0.11300
H2174       H  0.53463617  0.90672617  0.76929469     0.11600
H2175       H  0.52895439  0.87328183  0.82024817     0.07900
C2176       C  0.96963292  0.85749179  0.90110271    -0.11200
C2177       C  0.96554925  0.83117268  0.92601064    -0.10500
C2178       C  0.99651325  0.82670984  0.93522469    -0.01400
C2179       C  0.53177930  0.85016688  0.92011169    -0.11600
C2180       C  0.53569655  0.87598001  0.89506858    -0.10000
H2181       H  0.94520834  0.85947231  0.89324169     0.07900
H2182       H  0.93806658  0.81371600  0.93729171     0.11600
H2183       H  0.55630413  0.84773098  0.92663150     0.11300
H2184       H  0.56286946  0.89249946  0.88271472     0.07900
C2185       C  0.51653331  0.66050261  0.87296651    -0.11200
C2186       C  0.98467176  0.64388167  0.85218022     0.05900
C2187       C  0.95292514  0.64738678  0.86219667    -0.10000
C2188       C  0.95327925  0.66733575  0.89209689    -0.11600
C2189       C  0.98541395  0.68429189  0.91248515    -0.01400
C2190       C  0.51700790  0.68062917  0.90254035    -0.10500
C2191       C  0.98481532  0.62199746  0.82116543     0.06000
H2192       H  0.92797085  0.63508023  0.84677401     0.07900
H2193       H  0.92850734  0.66976360  0.89907129     0.11300
H2194       H  0.54203846  0.69294097  0.91789460     0.11600
H2195       H  0.54107203  0.65748423  0.86670824     0.07900
C2196       C  0.51733989  0.63213260  0.80106238    -0.11200
C2197       C  0.52061793  0.60774260  0.77777107    -0.10500
C2198       C  0.99182526  0.57105082  0.77278940    -0.01400
C2199       C  0.95700197  0.56616599  0.78795465    -0.11600
C2200       C  0.95376993  0.58953845  0.81274051    -0.10000
H2201       H  0.54177067  0.65797715  0.80550264     0.07900
H2202       H  0.54921812  0.61702124  0.77092537     0.11600
H2203       H  0.93115244  0.54418329  0.78164828     0.11300
H2204       H  0.92697061  0.58145232  0.82582943     0.07900
C2205       C  0.96461767  0.58968483  0.67615386    -0.11200
C2206       C  0.98497417  0.59152828  0.64566031     0.05900
C2207       C  0.50846223  0.57557748  0.64617422    -0.10000
C2208       C  0.51209520  0.55906016  0.67687324    -0.11600
C2209       C  0.99358037  0.55832378  0.70974357    -0.01400
C2210       C  0.96852039  0.57371423  0.70658647    -0.10500
C2211       C  0.98364835  0.61284243  0.61497156     0.06000
H2212       H  0.52510766  0.57677360  0.62300186     0.07900
H2213       H  0.53346293  0.55167026  0.67464525     0.11300
H2214       H  0.94976036  0.57295753  0.72712242     0.11600
H2215       H  0.94587149  0.60146145  0.67697728     0.07900
C2216       C  0.94987587  0.61191536  0.60549966    -0.11200
C2217       C  0.94966064  0.63637721  0.58063481    -0.10500
C2218       C  0.98325290  0.66246956  0.56478373    -0.01400
C2219       C  0.51668766  0.66204556  0.57290032    -0.11600
C2220       C  0.51682756  0.63746968  0.59753390    -0.10000
H2221       H  0.92369096  0.59286995  0.61804760     0.07900
H2222       H  0.92336735  0.63565127  0.57474901     0.11600
H2223       H  0.54307108  0.68146845  0.56094664     0.11300
H2224       H  0.54321361  0.63897841  0.60421692     0.07900
C2225       C  0.84595245  0.87509691  0.60923123    -0.11200
C2226       C  0.87764642  0.87310245  0.62039089     0.05900
C2227       C  0.88649115  0.84752030  0.60433807    -0.10000
C2228       C  0.86363295  0.82405364  0.57835058    -0.11600
C2229       C  0.83182207  0.82610733  0.56739523    -0.01400
C2230       C  0.82366283  0.85230755  0.58289379    -0.10500
C2231       C  0.89999897  0.89630999  0.64989324     0.06000
H2232       H  0.91036249  0.84482718  0.61270377     0.07900
H2233       H  0.87059482  0.80401789  0.56717462     0.11300
H2234       H  0.79929698  0.85457572  0.57541197     0.11600
H2235       H  0.83793046  0.89396250  0.62125605     0.07900
C2236       C  0.93895838  0.91240207  0.64942614    -0.11200
C2237       C  0.95956266  0.93274029  0.67807575    -0.10500
C2238       C  0.94258786  0.93678864  0.71019780    -0.01400
C2239       C  0.90274364  0.92249762  0.70754141    -0.11600
C2240       C  0.88228356  0.90259322  0.67897900    -0.10000
H2241       H  0.95382373  0.90947580  0.62658081     0.07900
H2242       H  0.98870095  0.94409585  0.67331169     0.11600
H2243       H  0.88641962  0.92498027  0.72899948     0.11300
H2244       H  0.85214931  0.89109385  0.68040787     0.07900
C2245       C  0.82250246  0.83917906  0.85776092    -0.11200
C2246       C  0.85317617  0.83489761  0.84580142     0.05900
C2247       C  0.86295600  0.81187482  0.86427580    -0.10000
C2248       C  0.84319570  0.79453943  0.89514507    -0.11600
C2249       C  0.81368716  0.80041779  0.90824489    -0.01400
C2250       C  0.80290318  0.82208368  0.88861588    -0.10500
C2251       C  0.88029014  0.86194346  0.82099194     0.06000
H2252       H  0.88726058  0.80912858  0.85602812     0.07900
H2253       H  0.85202792  0.77778776  0.90950520     0.11300
H2254       H  0.78001787  0.82677266  0.89766508     0.11600
H2255       H  0.81522971  0.85764395  0.84435752     0.07900
C2256       C  0.90364626  0.89573364  0.83391050    -0.11200
C2257       C  0.92830344  0.92335904  0.81184326    -0.10500
C2258       C  0.93268179  0.92104785  0.77465271    -0.01400
C2259       C  0.90830520  0.88399510  0.76329800    -0.11600
C2260       C  0.88287759  0.85576983  0.78541387    -0.10000
H2261       H  0.90240677  0.90122967  0.86170773     0.07900
H2262       H  0.94224278  0.94659122  0.82678776     0.11600
H2263       H  0.90902517  0.87481261  0.73687425     0.11300
H2264       H  0.86541737  0.82916206  0.77459625     0.07900
C2265       C  0.62297272  0.66147986  0.89594460    -0.11200
C2266       C  0.62736414  0.63251437  0.88191658     0.05900
C2267       C  0.65487127  0.62507646  0.89558592    -0.10000
C2268       C  0.67873332  0.64713513  0.92147017    -0.11600
C2269       C  0.67568088  0.67725698  0.93427097    -0.01400
C2270       C  0.64694249  0.68368827  0.92180560    -0.10500
C2271       C  0.60518397  0.61140004  0.85163444     0.06000
H2272       H  0.65834390  0.60247841  0.88572014     0.07900
H2273       H  0.70025012  0.64116895  0.93070137     0.11300
H2274       H  0.64365162  0.70655981  0.93125208     0.11600
H2275       H  0.60209145  0.66787866  0.88587194     0.07900
C2276       C  0.56653249  0.59648363  0.85145427    -0.11200
C2277       C  0.54600900  0.57514857  0.82320232    -0.10500
C2278       C  0.56256148  0.56820192  0.79168763    -0.01400
C2279       C  0.60223719  0.58279913  0.79550437    -0.11600
C2280       C  0.62274005  0.60423879  0.82328059    -0.10000
H2281       H  0.55182221  0.60091949  0.87359570     0.07900
H2282       H  0.51734699  0.56733647  0.82771451     0.11600
H2283       H  0.61792183  0.57254401  0.78142954     0.11300
H2284       H  0.65259196  0.61352854  0.82337168     0.07900
C2285       C  0.68621715  0.66321338  0.64066604    -0.11200
C2286       C  0.64851537  0.65534167  0.64519139     0.05900
C2287       C  0.63349239  0.66915474  0.62015410    -0.10000
C2288       C  0.65527970  0.68992238  0.59162439    -0.11600
C2289       C  0.69234976  0.69659849  0.58688995    -0.01400
C2290       C  0.70757985  0.68302306  0.61160362    -0.10500
C2291       C  0.62467227  0.63196682  0.67499384     0.06000
H2292       H  0.60465367  0.66341567  0.62200636     0.07900
H2293       H  0.64278149  0.69982606  0.57267489     0.11300
H2294       H  0.73629312  0.68815888  0.60868990     0.11600
H2295       H  0.69973720  0.65449250  0.65954736     0.07900
C2296       C  0.63286465  0.60717801  0.69141692    -0.11200
C2297       C  0.60953310  0.58455083  0.71815444    -0.10500
C2298       C  0.57279196  0.57903493  0.72716548    -0.01400
C2299       C  0.56960902  0.60983736  0.71373111    -0.11600
C2300       C  0.59365662  0.63441308  0.68822843    -0.10000
H2301       H  0.65773412  0.60503875  0.68435460     0.07900
H2302       H  0.62303019  0.57240847  0.73105252     0.11600
H2303       H  0.54658519  0.61503430  0.71835073     0.11300
H2304       H  0.58720679  0.65508863  0.67869385     0.07900
loop_ 
_geom_bond_atom_site_label_1 
_geom_bond_atom_site_label_2 
_geom_bond_distance 
_geom_bond_site_symmetry_2 
_ccdc_geom_bond_type 
O1           C11   1.277       .  A
O1         Cu297   2.001       .  S
O2           C12   1.277       .  A
O2           Cu9   2.008       .  S
O3           C13   1.281       .  A
O3         Cu297   2.033       .  S
O4           C14   1.282       .  A
O4           Cu9   2.029       .  S
O5           C14   1.276       .  A
O5         Cu298   1.997       .  S
O6           C13   1.279       .  A
O6          Cu10   2.013   1_554  S
O7           C12   1.281       .  A
O7         Cu298   2.019       .  S
O8           C11   1.279       .  A
O8          Cu10   2.014   1_554  S
Cu9         O289   2.001       .  S
Cu9         O291   2.033       .  S
Cu9        Cu298   2.370       .  S
Cu10        O293   1.997       .  S
Cu10        O295   2.019       .  S
Cu10       Cu297   2.370   1_556  S
C11         C273   1.474       .  S
C12         C233   1.484       .  S
C13         C213   1.491       .  S
C14         C253   1.485       .  S
O15          C25   1.278       .  A
O15         Cu23   2.014       .  S
O16          C26   1.277       .  A
O16        Cu311   2.014       .  S
O17          C27   1.282       .  A
O17         Cu23   2.040       .  S
O18          C28   1.282       .  A
O18        Cu311   2.037       .  S
O19        C1180   1.277   1_455  A
O19        Cu312   2.005   1_554  S
O20        C1179   1.277   1_455  A
O20         Cu24   1.998       .  S
O21        C1178   1.278   1_455  A
O21        Cu312   2.013   1_554  S
O22        C1177   1.279   1_455  A
O22         Cu24   2.011       .  S
Cu23        O304   2.014       .  S
Cu23        O306   2.037       .  S
Cu23      Cu1176   2.369       .  S
Cu24        O307   2.005       .  S
Cu24        O309   2.013       .  S
Cu24      Cu1175   2.369   1_455  S
C25        O1174   1.279       .  A
C25         C173   1.482       .  S
C26        O1173   1.278       .  A
C26         C142   1.471       .  S
C27        O1172   1.277       .  A
C27         C162   1.489       .  S
C28        O1171   1.277       .  A
C28         C202   1.490       .  S
O29          C39   1.281       .  A
O29        Cu325   2.027       .  S
O30          C40   1.280       .  A
O30         Cu37   2.016       .  S
O31          C41   1.278       .  A
O31        Cu325   2.003       .  S
O32          C42   1.277       .  A
O32         Cu37   2.001       .  S
O33         C618   1.278   1_545  A
O33         Cu38   2.006       .  S
O34         C617   1.278       .  A
O34        Cu326   2.012       .  S
O35         C616   1.279   1_545  A
O35         Cu38   2.017       .  S
O36         C615   1.278       .  A
O36        Cu326   2.011       .  S
Cu37        O317   2.027       .  S
Cu37        O319   2.003       .  S
Cu37       Cu614   2.371       .  S
Cu38        O322   2.012       .  S
Cu38        O324   2.011       .  S
Cu38       Cu613   2.371   1_545  S
C39         O612   1.278       .  A
C39         C113   1.488       .  S
C40         O611   1.279       .  A
C40          C73   1.486       .  S
C41         O610   1.278       .  A
C41          C62   1.473       .  S
C42         O609   1.278       .  A
C42          C93   1.477       .  S
C43          C46   1.785       .  S
C43        C1200   1.751   1_455  S
C43        C1285   1.649       .  S
C43        C1305   1.649       .  S
C44          C47   1.795   1_545  S
C44        C1197   1.774       .  S
C44         C182   1.660       .  S
C44         C193   1.655       .  S
C45        C1196   1.774   1_455  S
C45         C622   1.816       .  S
C45         C262   1.670       .  S
C45         C282   1.695       .  S
C46         C621   1.816       .  S
C46         C102   1.638       .  S
C46         C122   1.586       .  S
C47         C624   1.780       .  S
C47         C629   1.649       .  S
C47         C658   1.570       .  S
C48        C1195   1.751       .  S
C48         C623   1.780       .  S
C48         C222   1.648       .  S
C48         C242   1.700       .  S
C49          C54   1.398       .  A
C49         C626   1.389       .  A
C49          H59   1.084       .  S
C50          C55   1.480       .  S
C50          C51   1.391       .  A
C50         C625   1.389       .  A
C51          C52   1.396       .  A
C51          H56   1.083       .  S
C52          C53   1.434       .  A
C52          H57   1.071       .  S
C53         C623   1.649       .  S
C53         C630   1.441       .  A
C54         C629   1.441   1_545  A
C54          H58   1.066       .  S
C55          C64   1.401       .  A
C55         C636   1.406       .  A
C60          C61   1.402       .  A
C60         C631   1.406       .  A
C60          H65   1.083       .  S
C61         C638   1.405       .  A
C61          H66   1.083       .  S
C62          C63   1.403       .  A
C62         C637   1.405       .  A
C63          C64   1.394       .  A
C63          H67   1.083       .  S
C64          H68   1.079       .  S
C69          C70   1.405       .  A
C69          C74   1.397       .  A
C69          H79   1.084       .  S
C70          C75   1.480       .  S
C70         C647   1.403       .  A
C71          C72   1.402       .  A
C71         C646   1.403   1_545  A
C71          H76   1.083       .  S
C72         C649   1.409   1_545  A
C72          H77   1.083       .  S
C73          C74   1.406       .  A
C73         C648   1.409       .  A
C74          H78   1.083       .  S
C75          C84   1.396       .  A
C75         C656   1.403       .  A
C80          C81   1.408       .  A
C80         C651   1.403   1_545  A
C80          H85   1.083       .  S
C81         C658   1.401   1_545  A
C81          H86   1.055       .  S
C82         C623   1.570       .  S
C82          C83   1.425       .  A
C82         C657   1.401       .  A
C83          C84   1.391       .  A
C83          H87   1.073       .  S
C84          H88   1.083       .  S
C89          C94   1.394       .  A
C89         C666   1.402   1_545  A
C89          H99   1.082       .  S
C90          C95   1.472       .  S
C90          C91   1.402       .  A
C90         C665   1.402       .  A
C91          C92   1.398       .  A
C91          H96   1.083       .  S
C92          C93   1.407       .  A
C92          H97   1.083       .  S
C93         C670   1.405       .  A
C94         C669   1.404   1_545  A
C94          H98   1.083       .  S
C95         C104   1.389       .  A
C95         C676   1.387       .  A
C100        C101   1.393       .  A
C100        C671   1.388   1_545  A
C100        H105   1.084       .  S
C101        C678   1.428       .  A
C101        H106   1.065       .  S
C102        C103   1.434       .  A
C102        C677   1.428       .  A
C103        C104   1.399       .  A
C103        H107   1.064       .  S
C104        H108   1.083       .  S
C109        C114   1.400       .  A
C109        C686   1.403       .  A
C109        H119   1.084       .  S
C110        C115   1.476       .  S
C110        C111   1.402       .  A
C110        C685   1.403       .  A
C111        C112   1.402       .  A
C111        H116   1.081       .  S
C112        C113   1.407       .  A
C112        H117   1.083       .  S
C113        C690   1.408       .  A
C114        C689   1.408       .  A
C114        H118   1.083       .  S
C115        C124   1.402       .  A
C115        C696   1.387       .  A
C120        C121   1.386       .  A
C120        C691   1.387       .  A
C120        H125   1.084       .  S
C121        C698   1.440       .  A
C121        H126   1.076       .  S
C122        C123   1.400       .  A
C122        C697   1.440       .  A
C123        C124   1.412       .  A
C123        H127   1.070       .  S
C124        H128   1.082       .  S
C129        C130   1.397       .  A
C129        C134   1.404       .  A
C129        H139   1.081       .  S
C130        C135   1.495       .  S
C130       C1283   1.393       .  A
C131        C132   1.397       .  A
C131       C1282   1.393       .  A
C131        H136   1.082       .  S
C132       C1285   1.429       .  A
C132        H137   1.043       .  S
C133       C1195   1.649       .  S
C133        C134   1.431       .  A
C133       C1284   1.429       .  A
C134        H138   1.063       .  S
C135        C140   1.410       .  A
C135       C1296   1.410       .  A
C140        C141   1.403       .  A
C140        H145   1.081       .  S
C141        C142   1.403       .  A
C141        H146   1.083       .  S
C142       C1295   1.399       .  A
C143        C144   1.396       .  A
C143       C1294   1.399   1_455  A
C143        H147   1.084       .  S
C144       C1287   1.410   1_455  A
C144        H148   1.082       .  S
C149        C154   1.392       .  A
C149       C1302   1.388       .  A
C149        H159   1.084       .  S
C150        C155   1.481       .  S
C150        C151   1.394       .  A
C150       C1301   1.388       .  A
C151        C152   1.408       .  A
C151        H156   1.083       .  S
C152        C153   1.411       .  A
C152        H157   1.054       .  S
C153       C1195   1.649       .  S
C153       C1306   1.446       .  A
C154       C1305   1.446       .  A
C154        H158   1.078       .  S
C155        C160   1.405       .  A
C155       C1316   1.402       .  A
C160        C161   1.406       .  A
C160        H165   1.083       .  S
C161        C162   1.409       .  A
C161        H166   1.083       .  S
C162       C1315   1.408       .  A
C163        C164   1.396       .  A
C163       C1314   1.408   1_455  A
C163        H167   1.083       .  S
C164       C1307   1.402       .  A
C164        H168   1.083       .  S
C169        C174   1.395       .  A
C169       C1322   1.407   1_455  A
C169        H179   1.081       .  S
C170        C175   1.489       .  S
C170        C171   1.406       .  A
C170       C1321   1.407       .  A
C171        C172   1.402       .  A
C171        H176   1.082       .  S
C172        C173   1.407       .  A
C172        H177   1.083       .  S
C173       C1326   1.403       .  A
C174       C1325   1.403   1_455  A
C174        H178   1.083       .  S
C175        C184   1.391       .  A
C175       C1332   1.389       .  A
C180        C181   1.396       .  A
C180       C1327   1.389   1_455  A
C180        H185   1.084       .  S
C181       C1334   1.439   1_455  A
C181        H186   1.061       .  S
C182        C183   1.434       .  A
C182       C1333   1.439       .  A
C183        C184   1.400       .  A
C183        H187   1.050       .  S
C184        H188   1.083       .  S
C189        C190   1.388       .  A
C189        C194   1.392       .  A
C189        H199   1.083       .  S
C190        C195   1.493       .  S
C190       C1343   1.398       .  A
C191        C192   1.409       .  A
C191       C1342   1.398   1_455  A
C191        H196   1.083       .  S
C192       C1345   1.435   1_455  A
C192        H197   1.050       .  S
C193        C194   1.445       .  A
C193       C1344   1.435       .  A
C194        H198   1.066       .  S
C195        C200   1.410       .  A
C195       C1356   1.403       .  A
C200        C201   1.403       .  A
C200        H205   1.083       .  S
C201        C202   1.406       .  A
C201        H206   1.083       .  S
C202       C1355   1.408       .  A
C203        C204   1.400       .  A
C203       C1354   1.408   1_455  A
C203        H207   1.083       .  S
C204       C1347   1.403   1_455  A
C204        H208   1.080       .  S
C209        C210   1.405       .  A
C209        C214   1.397       .  A
C209        H219   1.079       .  S
C210        C215   1.494       .  S
C210        C211   1.409       .  A
C211        C212   1.406       .  A
C211        H216   1.083       .  S
C212        C213   1.408       .  A
C212        H217   1.083       .  S
C213        C214   1.406       .  A
C214        H218   1.083       .  S
C215        C220   1.396       .  A
C215        C224   1.393       .  A
C220        C221   1.406       .  A
C220        H225   1.084       .  S
C221        C222   1.435       .  A
C221        H226   1.057       .  S
C222        C223   1.442       .  A
C223        C224   1.395       .  A
C223        H227   1.073       .  S
C224        H228   1.083       .  S
C229        C230   1.402       .  A
C229        C234   1.397       .  A
C229        H239   1.084       .  S
C230        C235   1.473       .  S
C230        C231   1.403       .  A
C231        C232   1.402       .  A
C231        H236   1.083       .  S
C232        C233   1.409       .  A
C232        H237   1.083       .  S
C233        C234   1.405       .  A
C234        H238   1.083       .  S
C235        C240   1.373       .  A
C235        C244   1.387       .  A
C240        C241   1.387       .  A
C240        H245   1.086       .  S
C241        C242   1.431       .  A
C241        H246   1.038       .  S
C242        C243   1.460       .  A
C243        C244   1.410       .  A
C243        H247   1.078       .  S
C244        H248   1.083       .  S
C249        C250   1.403       .  A
C249        C254   1.401       .  A
C249        H259   1.082       .  S
C250        C255   1.486       .  S
C250        C251   1.406       .  A
C251        C252   1.398       .  A
C251        H256   1.081       .  S
C252        C253   1.404       .  A
C252        H257   1.083       .  S
C253        C254   1.410       .  A
C254        H258   1.083       .  S
C255        C260   1.388       .  A
C255        C264   1.384       .  A
C260        C261   1.407       .  A
C260        H265   1.084       .  S
C261        C262   1.452       .  A
C261        H266   1.059       .  S
C262        C263   1.439       .  A
C263        C264   1.394       .  A
C263        H267   1.053       .  S
C264        H268   1.084       .  S
C269        C270   1.411       .  A
C269        C274   1.396       .  A
C269        H279   1.080       .  S
C270        C275   1.499       .  S
C270        C271   1.410       .  A
C271        C272   1.399       .  A
C271        H276   1.079       .  S
C272        C273   1.401       .  A
C272        H277   1.083       .  S
C273        C274   1.401       .  A
C274        H278   1.083       .  S
C275        C280   1.387       .  A
C275        C284   1.391       .  A
C280        C281   1.396       .  A
C280        H285   1.081       .  S
C281        C282   1.430       .  A
C281        H286   1.039       .  S
C282        C283   1.452       .  A
C283        C284   1.404       .  A
C283        H287   1.064       .  S
C284        H288   1.083       .  S
O289        C299   1.277       .  A
O290        C300   1.277       .  A
O290       Cu297   2.007   1_556  S
O291        C301   1.281       .  A
O292        C302   1.282       .  A
O292       Cu297   2.029   1_556  S
O293        C302   1.276       .  A
O294        C301   1.279       .  A
O294       Cu298   2.013       .  S
O295        C300   1.281       .  A
O296        C299   1.279       .  A
O296       Cu298   2.014       .  S
C299        C561   1.474       .  S
C300        C521   1.484       .  S
C301        C501   1.491       .  S
C302        C541   1.485       .  S
O303        C313   1.278       .  A
O303       Cu311   2.014   1_556  S
O304        C314   1.277       .  A
O305        C315   1.282       .  A
O305       Cu311   2.040   1_556  S
O306        C316   1.282       .  A
O307       C1468   1.277   1_455  A
O308       C1467   1.277   1_455  A
O308       Cu312   1.998       .  S
O309       C1466   1.278   1_455  A
O310       C1465   1.279   1_455  A
O310       Cu312   2.011       .  S
Cu311     Cu1464   2.369   1_554  S
Cu312     Cu1463   2.369   1_456  S
C313       O1462   1.279       .  A
C313        C461   1.482       .  S
C314       O1461   1.278       .  A
C314        C430   1.471       .  S
C315       O1460   1.277       .  A
C315        C450   1.489       .  S
C316       O1459   1.277       .  A
C316        C490   1.490       .  S
O317        C327   1.281       .  A
O318        C328   1.280       .  A
O318       Cu325   2.016   1_556  S
O319        C329   1.278       .  A
O320        C330   1.277       .  A
O320       Cu325   2.001   1_556  S
O321        C906   1.278   1_545  A
O321       Cu326   2.006   1_556  S
O322        C905   1.278       .  A
O323        C904   1.279   1_545  A
O323       Cu326   2.017   1_556  S
O324        C903   1.278       .  A
Cu325      Cu902   2.371       .  S
Cu326      Cu901   2.371   1_545  S
C327        O900   1.278       .  A
C327        C401   1.488       .  S
C328        O899   1.279       .  A
C328        C361   1.486       .  S
C329        O898   1.278       .  A
C329        C350   1.473       .  S
C330        O897   1.278       .  A
C330        C381   1.477       .  S
C331        C334   1.785       .  S
C331       C1488   1.751   1_455  S
C331       C1573   1.649       .  S
C331       C1593   1.649       .  S
C332       C1485   1.774       .  S
C332        C335   1.795   1_545  S
C332        C470   1.660       .  S
C332        C481   1.655       .  S
C333       C1484   1.774   1_455  S
C333        C910   1.816       .  S
C333        C550   1.670       .  S
C333        C570   1.695       .  S
C334        C909   1.816       .  S
C334        C390   1.638       .  S
C334        C410   1.586       .  S
C335        C912   1.780       .  S
C335        C917   1.649       .  S
C335        C946   1.570       .  S
C336       C1483   1.751       .  S
C336        C911   1.780       .  S
C336        C510   1.648       .  S
C336        C530   1.700       .  S
C337        C914   1.389       .  A
C337        C342   1.398       .  A
C337        H347   1.084       .  S
C338        C343   1.480       .  S
C338        C913   1.389       .  A
C338        C339   1.391       .  A
C339        C340   1.396       .  A
C339        H344   1.083       .  S
C340        C341   1.434       .  A
C340        H345   1.071       .  S
C341        C911   1.649       .  S
C341        C918   1.441       .  A
C342        C917   1.441   1_545  A
C342        H346   1.066       .  S
C343        C924   1.406       .  A
C343        C352   1.401       .  A
C348        C919   1.406       .  A
C348        C349   1.402       .  A
C348        H353   1.083       .  S
C349        C926   1.405       .  A
C349        H354   1.083       .  S
C350        C925   1.405       .  A
C350        C351   1.403       .  A
C351        C352   1.394       .  A
C351        H355   1.083       .  S
C352        H356   1.079       .  S
C357        C358   1.405       .  A
C357        C362   1.397       .  A
C357        H367   1.084       .  S
C358        C363   1.480       .  S
C358        C935   1.403       .  A
C359        C934   1.403   1_545  A
C359        C360   1.402       .  A
C359        H364   1.083       .  S
C360        C937   1.409   1_545  A
C360        H365   1.083       .  S
C361        C936   1.409       .  A
C361        C362   1.406       .  A
C362        H366   1.083       .  S
C363        C944   1.403       .  A
C363        C372   1.396       .  A
C368        C939   1.403   1_545  A
C368        C369   1.408       .  A
C368        H373   1.083       .  S
C369        C946   1.401   1_545  A
C369        H374   1.055       .  S
C370        C911   1.570       .  S
C370        C945   1.401       .  A
C370        C371   1.425       .  A
C371        C372   1.391       .  A
C371        H375   1.073       .  S
C372        H376   1.083       .  S
C377        C954   1.402   1_545  A
C377        C382   1.394       .  A
C377        H387   1.082       .  S
C378        C383   1.472       .  S
C378        C953   1.402       .  A
C378        C379   1.402       .  A
C379        C380   1.398       .  A
C379        H384   1.083       .  S
C380        C381   1.407       .  A
C380        H385   1.083       .  S
C381        C958   1.405       .  A
C382        C957   1.404   1_545  A
C382        H386   1.083       .  S
C383        C964   1.387       .  A
C383        C392   1.389       .  A
C388        C959   1.388   1_545  A
C388        C389   1.393       .  A
C388        H393   1.084       .  S
C389        C966   1.428       .  A
C389        H394   1.065       .  S
C390        C965   1.428       .  A
C390        C391   1.434       .  A
C391        C392   1.399       .  A
C391        H395   1.064       .  S
C392        H396   1.083       .  S
C397        C974   1.403       .  A
C397        C402   1.400       .  A
C397        H407   1.084       .  S
C398        C403   1.476       .  S
C398        C973   1.403       .  A
C398        C399   1.402       .  A
C399        C400   1.402       .  A
C399        H404   1.081       .  S
C400        C401   1.407       .  A
C400        H405   1.083       .  S
C401        C978   1.408       .  A
C402        C977   1.408       .  A
C402        H406   1.083       .  S
C403        C984   1.387       .  A
C403        C412   1.402       .  A
C408        C979   1.387       .  A
C408        C409   1.386       .  A
C408        H413   1.084       .  S
C409        C986   1.440       .  A
C409        H414   1.076       .  S
C410        C985   1.440       .  A
C410        C411   1.400       .  A
C411        C412   1.412       .  A
C411        H415   1.070       .  S
C412        H416   1.082       .  S
C417        C418   1.397       .  A
C417        C422   1.404       .  A
C417        H427   1.081       .  S
C418        C423   1.495       .  S
C418       C1571   1.393       .  A
C419       C1570   1.393       .  A
C419        C420   1.397       .  A
C419        H424   1.082       .  S
C420       C1573   1.429       .  A
C420        H425   1.043       .  S
C421       C1483   1.649       .  S
C421       C1572   1.429       .  A
C421        C422   1.431       .  A
C422        H426   1.063       .  S
C423        C428   1.410       .  A
C423       C1584   1.410       .  A
C428        C429   1.403       .  A
C428        H433   1.081       .  S
C429        C430   1.403       .  A
C429        H434   1.083       .  S
C430       C1583   1.399       .  A
C431       C1582   1.399   1_455  A
C431        C432   1.396       .  A
C431        H435   1.084       .  S
C432       C1575   1.410   1_455  A
C432        H436   1.082       .  S
C437       C1590   1.388       .  A
C437        C442   1.392       .  A
C437        H447   1.084       .  S
C438        C443   1.481       .  S
C438       C1589   1.388       .  A
C438        C439   1.394       .  A
C439        C440   1.408       .  A
C439        H444   1.083       .  S
C440        C441   1.411       .  A
C440        H445   1.054       .  S
C441       C1483   1.649       .  S
C441       C1594   1.446       .  A
C442       C1593   1.446       .  A
C442        H446   1.078       .  S
C443        C448   1.405       .  A
C443       C1604   1.402       .  A
C448        C449   1.406       .  A
C448        H453   1.083       .  S
C449        C450   1.409       .  A
C449        H454   1.083       .  S
C450       C1603   1.408       .  A
C451       C1602   1.408   1_455  A
C451        C452   1.396       .  A
C451        H455   1.083       .  S
C452       C1595   1.402       .  A
C452        H456   1.083       .  S
C457       C1610   1.407   1_455  A
C457        C462   1.395       .  A
C457        H467   1.081       .  S
C458        C463   1.489       .  S
C458       C1609   1.407       .  A
C458        C459   1.406       .  A
C459        C460   1.402       .  A
C459        H464   1.082       .  S
C460        C461   1.407       .  A
C460        H465   1.083       .  S
C461       C1614   1.403       .  A
C462       C1613   1.403   1_455  A
C462        H466   1.083       .  S
C463       C1620   1.389       .  A
C463        C472   1.391       .  A
C468       C1615   1.389   1_455  A
C468        C469   1.396       .  A
C468        H473   1.084       .  S
C469       C1622   1.439   1_455  A
C469        H474   1.061       .  S
C470       C1621   1.439       .  A
C470        C471   1.434       .  A
C471        C472   1.400       .  A
C471        H475   1.050       .  S
C472        H476   1.083       .  S
C477        C478   1.388       .  A
C477        C482   1.392       .  A
C477        H487   1.083       .  S
C478        C483   1.493       .  S
C478       C1631   1.398       .  A
C479       C1630   1.398   1_455  A
C479        C480   1.409       .  A
C479        H484   1.083       .  S
C480       C1633   1.435   1_455  A
C480        H485   1.050       .  S
C481       C1632   1.435       .  A
C481        C482   1.445       .  A
C482        H486   1.066       .  S
C483        C488   1.410       .  A
C483       C1644   1.403       .  A
C488        C489   1.403       .  A
C488        H493   1.083       .  S
C489        C490   1.406       .  A
C489        H494   1.083       .  S
C490       C1643   1.408       .  A
C491       C1642   1.408   1_455  A
C491        C492   1.400       .  A
C491        H495   1.083       .  S
C492       C1635   1.403   1_455  A
C492        H496   1.080       .  S
C497        C498   1.405       .  A
C497        C502   1.397       .  A
C497        H507   1.079       .  S
C498        C503   1.494       .  S
C498        C499   1.409       .  A
C499        C500   1.406       .  A
C499        H504   1.083       .  S
C500        C501   1.408       .  A
C500        H505   1.083       .  S
C501        C502   1.406       .  A
C502        H506   1.083       .  S
C503        C508   1.396       .  A
C503        C512   1.393       .  A
C508        C509   1.406       .  A
C508        H513   1.084       .  S
C509        C510   1.435       .  A
C509        H514   1.057       .  S
C510        C511   1.442       .  A
C511        C512   1.395       .  A
C511        H515   1.073       .  S
C512        H516   1.083       .  S
C517        C518   1.402       .  A
C517        C522   1.397       .  A
C517        H527   1.084       .  S
C518        C523   1.473       .  S
C518        C519   1.403       .  A
C519        C520   1.402       .  A
C519        H524   1.083       .  S
C520        C521   1.409       .  A
C520        H525   1.083       .  S
C521        C522   1.405       .  A
C522        H526   1.083       .  S
C523        C528   1.373       .  A
C523        C532   1.387       .  A
C528        C529   1.387       .  A
C528        H533   1.086       .  S
C529        C530   1.431       .  A
C529        H534   1.038       .  S
C530        C531   1.460       .  A
C531        C532   1.410       .  A
C531        H535   1.078       .  S
C532        H536   1.083       .  S
C537        C538   1.403       .  A
C537        C542   1.401       .  A
C537        H547   1.082       .  S
C538        C543   1.486       .  S
C538        C539   1.406       .  A
C539        C540   1.398       .  A
C539        H544   1.081       .  S
C540        C541   1.404       .  A
C540        H545   1.083       .  S
C541        C542   1.410       .  A
C542        H546   1.083       .  S
C543        C548   1.388       .  A
C543        C552   1.384       .  A
C548        C549   1.407       .  A
C548        H553   1.084       .  S
C549        C550   1.452       .  A
C549        H554   1.059       .  S
C550        C551   1.439       .  A
C551        C552   1.394       .  A
C551        H555   1.053       .  S
C552        H556   1.084       .  S
C557        C558   1.411       .  A
C557        C562   1.396       .  A
C557        H567   1.080       .  S
C558        C563   1.499       .  S
C558        C559   1.410       .  A
C559        C560   1.399       .  A
C559        H564   1.079       .  S
C560        C561   1.401       .  A
C560        H565   1.083       .  S
C561        C562   1.401       .  A
C562        H566   1.083       .  S
C563        C568   1.387       .  A
C563        C572   1.391       .  A
C568        C569   1.396       .  A
C568        H573   1.081       .  S
C569        C570   1.430       .  A
C569        H574   1.039       .  S
C570        C571   1.452       .  A
C571        C572   1.404       .  A
C571        H575   1.064       .  S
C572        H576   1.083       .  S
O577        C587   1.277       .  A
O577       Cu873   2.001       .  S
O578        C588   1.277       .  A
O578       Cu585   2.008       .  S
O579        C589   1.281       .  A
O579       Cu873   2.032       .  S
O580        C590   1.282       .  A
O580       Cu585   2.029       .  S
O581        C590   1.276       .  A
O581       Cu874   1.998       .  S
O582        C589   1.279       .  A
O582       Cu586   2.013   1_554  S
O583        C588   1.281       .  A
O583       Cu874   2.019       .  S
O584        C587   1.279       .  A
O584       Cu586   2.014   1_554  S
Cu585       O865   2.001       .  S
Cu585       O867   2.032       .  S
Cu585      Cu874   2.370       .  S
Cu586       O869   1.998       .  S
Cu586       O871   2.019       .  S
Cu586      Cu873   2.370   1_556  S
C587        C849   1.474       .  S
C588        C809   1.484       .  S
C589        C789   1.491       .  S
C590        C829   1.485       .  S
O591        C601   1.278       .  A
O591       Cu599   2.014       .  S
O592        C602   1.277       .  A
O592       Cu887   2.014       .  S
O593        C603   1.282       .  A
O593       Cu599   2.040       .  S
O594        C604   1.282       .  A
O594       Cu887   2.037       .  S
O595       C1756   1.277   1_455  A
O595       Cu888   2.005   1_554  S
O596       C1755   1.277   1_455  A
O596       Cu600   1.998       .  S
O597       C1754   1.278   1_455  A
O597       Cu888   2.014   1_554  S
O598       C1753   1.279   1_455  A
O598       Cu600   2.011       .  S
Cu599       O880   2.014       .  S
Cu599       O882   2.037       .  S
Cu599     Cu1752   2.369       .  S
Cu600       O883   2.005       .  S
Cu600       O885   2.014       .  S
Cu600     Cu1751   2.369   1_455  S
C601       O1750   1.279       .  A
C601        C749   1.482       .  S
C602       O1749   1.278       .  A
C602        C718   1.471       .  S
C603       O1748   1.277       .  A
C603        C738   1.489       .  S
C604       O1747   1.277       .  A
C604        C778   1.490       .  S
O605        C615   1.281   1_565  A
O605       Cu901   2.027       .  S
O606        C616   1.280       .  A
O606       Cu613   2.016       .  S
O607        C617   1.278   1_565  A
O607       Cu901   2.003       .  S
O608        C618   1.277       .  A
O608       Cu613   2.001       .  S
O609       Cu614   2.005       .  S
O610       Cu902   2.012       .  S
O611       Cu614   2.017       .  S
O612       Cu902   2.011       .  S
Cu613       O893   2.027       .  S
Cu613       O895   2.003       .  S
Cu614       O898   2.012       .  S
Cu614       O900   2.011       .  S
C615        C689   1.488       .  S
C616        C649   1.486       .  S
C617        C638   1.473       .  S
C618        C669   1.477       .  S
C619        C622   1.785   1_565  S
C619       C1776   1.751   1_455  S
C619       C1861   1.649       .  S
C619       C1881   1.649       .  S
C620       C1773   1.774       .  S
C620        C623   1.795       .  S
C620        C758   1.660       .  S
C620        C769   1.655       .  S
C621       C1772   1.774   1_455  S
C621        C838   1.669       .  S
C621        C858   1.695       .  S
C622        C678   1.638       .  S
C622        C698   1.586       .  S
C624       C1771   1.751       .  S
C624        C798   1.648       .  S
C624        C818   1.700       .  S
C625        C630   1.398       .  A
C625        H635   1.084       .  S
C626        C631   1.480       .  S
C626        C627   1.391   1_545  A
C627        C628   1.396       .  A
C627        H632   1.083       .  S
C628        C629   1.435       .  A
C628        H633   1.071       .  S
C630        H634   1.066       .  S
C631        C640   1.401   1_545  A
C636        C637   1.402       .  A
C636        H641   1.083       .  S
C637        H642   1.083       .  S
C638        C639   1.403   1_545  A
C639        C640   1.394       .  A
C639        H643   1.083       .  S
C640        H644   1.079       .  S
C645        C646   1.405       .  A
C645        C650   1.397       .  A
C645        H655   1.084       .  S
C646        C651   1.480       .  S
C647        C648   1.402       .  A
C647        H652   1.083       .  S
C648        H653   1.083       .  S
C649        C650   1.406       .  A
C650        H654   1.083       .  S
C651        C660   1.396       .  A
C656        C657   1.408       .  A
C656        H661   1.083       .  S
C657        H662   1.055       .  S
C658        C659   1.425       .  A
C659        C660   1.391       .  A
C659        H663   1.073       .  S
C660        H664   1.083       .  S
C665        C670   1.394       .  A
C665        H675   1.082       .  S
C666        C671   1.472       .  S
C666        C667   1.402       .  A
C667        C668   1.398       .  A
C667        H672   1.083       .  S
C668        C669   1.407       .  A
C668        H673   1.083       .  S
C670        H674   1.083       .  S
C671        C680   1.389       .  A
C676        C677   1.393       .  A
C676        H681   1.084       .  S
C677        H682   1.065       .  S
C678        C679   1.434   1_545  A
C679        C680   1.399       .  A
C679        H683   1.064       .  S
C680        H684   1.083       .  S
C685        C690   1.400       .  A
C685        H695   1.084       .  S
C686        C691   1.477       .  S
C686        C687   1.403   1_545  A
C687        C688   1.402       .  A
C687        H692   1.081       .  S
C688        C689   1.407   1_565  A
C688        H693   1.083       .  S
C690        H694   1.083       .  S
C691        C700   1.402       .  A
C696        C697   1.386       .  A
C696        H701   1.084       .  S
C697        H702   1.076       .  S
C698        C699   1.400       .  A
C699        C700   1.412       .  A
C699        H703   1.070   1_545  S
C700        H704   1.082   1_545  S
C705        C706   1.397       .  A
C705        C710   1.404       .  A
C705        H715   1.081       .  S
C706        C711   1.495       .  S
C706       C1859   1.393       .  A
C707       C1858   1.393       .  A
C707        C708   1.397       .  A
C707        H712   1.082       .  S
C708       C1861   1.429       .  A
C708        H713   1.043       .  S
C709       C1771   1.649       .  S
C709       C1860   1.429       .  A
C709        C710   1.431       .  A
C710        H714   1.063       .  S
C711        C716   1.410       .  A
C711       C1872   1.410       .  A
C716        C717   1.403       .  A
C716        H721   1.081       .  S
C717        C718   1.403       .  A
C717        H722   1.083       .  S
C718       C1871   1.399       .  A
C719       C1870   1.399   1_455  A
C719        C720   1.396       .  A
C719        H723   1.084       .  S
C720       C1863   1.410   1_455  A
C720        H724   1.082       .  S
C725       C1878   1.388       .  A
C725        C730   1.392       .  A
C725        H735   1.084       .  S
C726        C731   1.481       .  S
C726       C1877   1.388       .  A
C726        C727   1.394       .  A
C727        C728   1.408       .  A
C727        H732   1.083       .  S
C728        C729   1.411       .  A
C728        H733   1.054       .  S
C729       C1771   1.649       .  S
C729       C1882   1.446       .  A
C730       C1881   1.446       .  A
C730        H734   1.078       .  S
C731        C736   1.405       .  A
C731       C1892   1.402       .  A
C736        C737   1.406       .  A
C736        H741   1.083       .  S
C737        C738   1.409       .  A
C737        H742   1.083       .  S
C738       C1891   1.408       .  A
C739       C1890   1.408   1_455  A
C739        C740   1.396       .  A
C739        H743   1.083       .  S
C740       C1883   1.402       .  A
C740        H744   1.083       .  S
C745       C1898   1.407   1_455  A
C745        C750   1.395       .  A
C745        H755   1.081       .  S
C746        C751   1.489       .  S
C746       C1897   1.407       .  A
C746        C747   1.406       .  A
C747        C748   1.402       .  A
C747        H752   1.082       .  S
C748        C749   1.407       .  A
C748        H753   1.083       .  S
C749       C1902   1.403       .  A
C750       C1901   1.403   1_455  A
C750        H754   1.083       .  S
C751       C1908   1.389       .  A
C751        C760   1.391       .  A
C756       C1903   1.389   1_455  A
C756        C757   1.396       .  A
C756        H761   1.084       .  S
C757       C1910   1.439   1_455  A
C757        H762   1.061       .  S
C758       C1909   1.439       .  A
C758        C759   1.434       .  A
C759        C760   1.400       .  A
C759        H763   1.050       .  S
C760        H764   1.083       .  S
C765        C766   1.388       .  A
C765        C770   1.392       .  A
C765        H775   1.083       .  S
C766        C771   1.494       .  S
C766       C1919   1.398       .  A
C767       C1918   1.398   1_455  A
C767        C768   1.409       .  A
C767        H772   1.083       .  S
C768       C1921   1.435   1_455  A
C768        H773   1.050       .  S
C769       C1920   1.435       .  A
C769        C770   1.445       .  A
C770        H774   1.066       .  S
C771        C776   1.410       .  A
C771       C1932   1.403       .  A
C776        C777   1.403       .  A
C776        H781   1.083       .  S
C777        C778   1.406       .  A
C777        H782   1.083       .  S
C778       C1931   1.408       .  A
C779       C1930   1.408   1_455  A
C779        C780   1.400       .  A
C779        H783   1.083       .  S
C780       C1923   1.403   1_455  A
C780        H784   1.080       .  S
C785        C786   1.405       .  A
C785        C790   1.397       .  A
C785        H795   1.079       .  S
C786        C791   1.494       .  S
C786        C787   1.409       .  A
C787        C788   1.406       .  A
C787        H792   1.083       .  S
C788        C789   1.408       .  A
C788        H793   1.083       .  S
C789        C790   1.406       .  A
C790        H794   1.083       .  S
C791        C796   1.396       .  A
C791        C800   1.393       .  A
C796        C797   1.406       .  A
C796        H801   1.084       .  S
C797        C798   1.435       .  A
C797        H802   1.057       .  S
C798        C799   1.442       .  A
C799        C800   1.395       .  A
C799        H803   1.073       .  S
C800        H804   1.083       .  S
C805        C806   1.402       .  A
C805        C810   1.397       .  A
C805        H815   1.084       .  S
C806        C811   1.473       .  S
C806        C807   1.403       .  A
C807        C808   1.402       .  A
C807        H812   1.083       .  S
C808        C809   1.409       .  A
C808        H813   1.083       .  S
C809        C810   1.405       .  A
C810        H814   1.083       .  S
C811        C816   1.373       .  A
C811        C820   1.387       .  A
C816        C817   1.387       .  A
C816        H821   1.086       .  S
C817        C818   1.431       .  A
C817        H822   1.038       .  S
C818        C819   1.460       .  A
C819        C820   1.410       .  A
C819        H823   1.078       .  S
C820        H824   1.083       .  S
C825        C826   1.403       .  A
C825        C830   1.401       .  A
C825        H835   1.082       .  S
C826        C831   1.486       .  S
C826        C827   1.406       .  A
C827        C828   1.398       .  A
C827        H832   1.081       .  S
C828        C829   1.404       .  A
C828        H833   1.083       .  S
C829        C830   1.410       .  A
C830        H834   1.083       .  S
C831        C836   1.388       .  A
C831        C840   1.384       .  A
C836        C837   1.407       .  A
C836        H841   1.084       .  S
C837        C838   1.452       .  A
C837        H842   1.059       .  S
C838        C839   1.439       .  A
C839        C840   1.394       .  A
C839        H843   1.054       .  S
C840        H844   1.084       .  S
C845        C846   1.411       .  A
C845        C850   1.396       .  A
C845        H855   1.080       .  S
C846        C851   1.499       .  S
C846        C847   1.410       .  A
C847        C848   1.399       .  A
C847        H852   1.079       .  S
C848        C849   1.401       .  A
C848        H853   1.083       .  S
C849        C850   1.401       .  A
C850        H854   1.083       .  S
C851        C856   1.387       .  A
C851        C860   1.391       .  A
C856        C857   1.396       .  A
C856        H861   1.081       .  S
C857        C858   1.429       .  A
C857        H862   1.040       .  S
C858        C859   1.452       .  A
C859        C860   1.404       .  A
C859        H863   1.064       .  S
C860        H864   1.083       .  S
O865        C875   1.277       .  A
O866        C876   1.277       .  A
O866       Cu873   2.008   1_556  S
O867        C877   1.281       .  A
O868        C878   1.282       .  A
O868       Cu873   2.029   1_556  S
O869        C878   1.276       .  A
O870        C877   1.279       .  A
O870       Cu874   2.013       .  S
O871        C876   1.281       .  A
O872        C875   1.279       .  A
O872       Cu874   2.014       .  S
C875       C1137   1.474       .  S
C876       C1097   1.484       .  S
C877       C1077   1.491       .  S
C878       C1117   1.485       .  S
O879        C889   1.278       .  A
O879       Cu887   2.014   1_556  S
O880        C890   1.277       .  A
O881        C891   1.282       .  A
O881       Cu887   2.040   1_556  S
O882        C892   1.282       .  A
O883       C2044   1.277   1_455  A
O884       C2043   1.277   1_455  A
O884       Cu888   1.998       .  S
O885       C2042   1.278   1_455  A
O886       C2041   1.279   1_455  A
O886       Cu888   2.011       .  S
Cu887     Cu2040   2.369   1_554  S
Cu888     Cu2039   2.369   1_456  S
C889       O2038   1.279       .  A
C889       C1037   1.482       .  S
C890       O2037   1.278       .  A
C890       C1006   1.471       .  S
C891       O2036   1.277       .  A
C891       C1026   1.488       .  S
C892       O2035   1.277       .  A
C892       C1066   1.490       .  S
O893        C903   1.281   1_565  A
O894        C904   1.280       .  A
O894       Cu901   2.016   1_556  S
O895        C905   1.278   1_565  A
O896        C906   1.277       .  A
O896       Cu901   2.001   1_556  S
O897       Cu902   2.005   1_556  S
O899       Cu902   2.017   1_556  S
C903        C977   1.488       .  S
C904        C937   1.486       .  S
C905        C926   1.473       .  S
C906        C957   1.477       .  S
C907        C910   1.785   1_565  S
C907       C2064   1.751   1_455  S
C907       C2149   1.649       .  S
C907       C2169   1.649       .  S
C908       C2061   1.774       .  S
C908        C911   1.795       .  S
C908       C1046   1.660       .  S
C908       C1057   1.655       .  S
C909       C2060   1.774   1_455  S
C909       C1126   1.669       .  S
C909       C1146   1.695       .  S
C910        C966   1.638       .  S
C910        C986   1.586       .  S
C912       C2059   1.751       .  S
C912       C1086   1.648       .  S
C912       C1106   1.700       .  S
C913        C918   1.398       .  A
C913        H923   1.084       .  S
C914        C919   1.480       .  S
C914        C915   1.391   1_545  A
C915        C916   1.396       .  A
C915        H920   1.083       .  S
C916        C917   1.435       .  A
C916        H921   1.071       .  S
C918        H922   1.066       .  S
C919        C928   1.401   1_545  A
C924        C925   1.402       .  A
C924        H929   1.083       .  S
C925        H930   1.083       .  S
C926        C927   1.403   1_545  A
C927        C928   1.394       .  A
C927        H931   1.083       .  S
C928        H932   1.079       .  S
C933        C934   1.405       .  A
C933        C938   1.397       .  A
C933        H943   1.084       .  S
C934        C939   1.480       .  S
C935        C936   1.402       .  A
C935        H940   1.083       .  S
C936        H941   1.083       .  S
C937        C938   1.406       .  A
C938        H942   1.083       .  S
C939        C948   1.396       .  A
C944        C945   1.408       .  A
C944        H949   1.083       .  S
C945        H950   1.055       .  S
C946        C947   1.425       .  A
C947        C948   1.391       .  A
C947        H951   1.073       .  S
C948        H952   1.083       .  S
C953        C958   1.394       .  A
C953        H963   1.082       .  S
C954        C959   1.472       .  S
C954        C955   1.402       .  A
C955        C956   1.398       .  A
C955        H960   1.083       .  S
C956        C957   1.407       .  A
C956        H961   1.083       .  S
C958        H962   1.083       .  S
C959        C968   1.389       .  A
C964        C965   1.393       .  A
C964        H969   1.084       .  S
C965        H970   1.065       .  S
C966        C967   1.434   1_545  A
C967        C968   1.399       .  A
C967        H971   1.064       .  S
C968        H972   1.083       .  S
C973        C978   1.400       .  A
C973        H983   1.084       .  S
C974        C979   1.477       .  S
C974        C975   1.403   1_545  A
C975        C976   1.402       .  A
C975        H980   1.081       .  S
C976        C977   1.407   1_565  A
C976        H981   1.083       .  S
C978        H982   1.083       .  S
C979        C988   1.402       .  A
C984        C985   1.386       .  A
C984        H989   1.084       .  S
C985        H990   1.076       .  S
C986        C987   1.400       .  A
C987        C988   1.412       .  A
C987        H991   1.070   1_545  S
C988        H992   1.082   1_545  S
C993        C994   1.397       .  A
C993        C998   1.404       .  A
C993       H1003   1.081       .  S
C994        C999   1.495       .  S
C994       C2147   1.393       .  A
C995       C2146   1.393       .  A
C995        C996   1.397       .  A
C995       H1000   1.082       .  S
C996       C2149   1.429       .  A
C996       H1001   1.043       .  S
C997       C2059   1.649       .  S
C997       C2148   1.429       .  A
C997        C998   1.431       .  A
C998       H1002   1.063       .  S
C999       C1004   1.410       .  A
C999       C2160   1.410       .  A
C1004      C1005   1.403       .  A
C1004      H1009   1.081       .  S
C1005      C1006   1.403       .  A
C1005      H1010   1.083       .  S
C1006      C2159   1.399       .  A
C1007      C2158   1.399   1_455  A
C1007      C1008   1.396       .  A
C1007      H1011   1.084       .  S
C1008      C2151   1.410   1_455  A
C1008      H1012   1.082       .  S
C1013      C2166   1.388       .  A
C1013      C1018   1.392       .  A
C1013      H1023   1.084       .  S
C1014      C1019   1.481       .  S
C1014      C2165   1.388       .  A
C1014      C1015   1.394       .  A
C1015      C1016   1.408       .  A
C1015      H1020   1.083       .  S
C1016      C1017   1.411       .  A
C1016      H1021   1.054       .  S
C1017      C2059   1.649       .  S
C1017      C2170   1.446       .  A
C1018      C2169   1.446       .  A
C1018      H1022   1.078       .  S
C1019      C1024   1.405       .  A
C1019      C2180   1.402       .  A
C1024      C1025   1.406       .  A
C1024      H1029   1.083       .  S
C1025      C1026   1.409       .  A
C1025      H1030   1.083       .  S
C1026      C2179   1.408       .  A
C1027      C2178   1.408   1_455  A
C1027      C1028   1.396       .  A
C1027      H1031   1.083       .  S
C1028      C2171   1.402       .  A
C1028      H1032   1.083       .  S
C1033      C2186   1.407   1_455  A
C1033      C1038   1.395       .  A
C1033      H1043   1.081       .  S
C1034      C1039   1.489       .  S
C1034      C2185   1.407       .  A
C1034      C1035   1.406       .  A
C1035      C1036   1.402       .  A
C1035      H1040   1.082       .  S
C1036      C1037   1.407       .  A
C1036      H1041   1.083       .  S
C1037      C2190   1.403       .  A
C1038      C2189   1.403   1_455  A
C1038      H1042   1.083       .  S
C1039      C2196   1.389       .  A
C1039      C1048   1.391       .  A
C1044      C2191   1.389   1_455  A
C1044      C1045   1.396       .  A
C1044      H1049   1.084       .  S
C1045      C2198   1.439   1_455  A
C1045      H1050   1.061       .  S
C1046      C2197   1.439       .  A
C1046      C1047   1.434       .  A
C1047      C1048   1.400       .  A
C1047      H1051   1.050       .  S
C1048      H1052   1.083       .  S
C1053      C1054   1.388       .  A
C1053      C1058   1.392       .  A
C1053      H1063   1.083       .  S
C1054      C1059   1.494       .  S
C1054      C2207   1.398       .  A
C1055      C2206   1.398   1_455  A
C1055      C1056   1.409       .  A
C1055      H1060   1.083       .  S
C1056      C2209   1.435   1_455  A
C1056      H1061   1.050       .  S
C1057      C2208   1.435       .  A
C1057      C1058   1.445       .  A
C1058      H1062   1.066       .  S
C1059      C1064   1.410       .  A
C1059      C2220   1.403       .  A
C1064      C1065   1.403       .  A
C1064      H1069   1.083       .  S
C1065      C1066   1.406       .  A
C1065      H1070   1.083       .  S
C1066      C2219   1.408       .  A
C1067      C2218   1.408   1_455  A
C1067      C1068   1.400       .  A
C1067      H1071   1.083       .  S
C1068      C2211   1.403   1_455  A
C1068      H1072   1.080       .  S
C1073      C1074   1.405       .  A
C1073      C1078   1.397       .  A
C1073      H1083   1.079       .  S
C1074      C1079   1.494       .  S
C1074      C1075   1.409       .  A
C1075      C1076   1.406       .  A
C1075      H1080   1.083       .  S
C1076      C1077   1.408       .  A
C1076      H1081   1.083       .  S
C1077      C1078   1.406       .  A
C1078      H1082   1.083       .  S
C1079      C1084   1.396       .  A
C1079      C1088   1.393       .  A
C1084      C1085   1.406       .  A
C1084      H1089   1.084       .  S
C1085      C1086   1.435       .  A
C1085      H1090   1.057       .  S
C1086      C1087   1.442       .  A
C1087      C1088   1.395       .  A
C1087      H1091   1.073       .  S
C1088      H1092   1.083       .  S
C1093      C1094   1.402       .  A
C1093      C1098   1.397       .  A
C1093      H1103   1.084       .  S
C1094      C1099   1.473       .  S
C1094      C1095   1.403       .  A
C1095      C1096   1.402       .  A
C1095      H1100   1.083       .  S
C1096      C1097   1.409       .  A
C1096      H1101   1.083       .  S
C1097      C1098   1.405       .  A
C1098      H1102   1.083       .  S
C1099      C1104   1.373       .  A
C1099      C1108   1.387       .  A
C1104      C1105   1.387       .  A
C1104      H1109   1.086       .  S
C1105      C1106   1.431       .  A
C1105      H1110   1.038       .  S
C1106      C1107   1.460       .  A
C1107      C1108   1.410       .  A
C1107      H1111   1.078       .  S
C1108      H1112   1.083       .  S
C1113      C1114   1.403       .  A
C1113      C1118   1.401       .  A
C1113      H1123   1.082       .  S
C1114      C1119   1.486       .  S
C1114      C1115   1.406       .  A
C1115      C1116   1.398       .  A
C1115      H1120   1.081       .  S
C1116      C1117   1.404       .  A
C1116      H1121   1.083       .  S
C1117      C1118   1.410       .  A
C1118      H1122   1.083       .  S
C1119      C1124   1.388       .  A
C1119      C1128   1.384       .  A
C1124      C1125   1.407       .  A
C1124      H1129   1.084       .  S
C1125      C1126   1.452       .  A
C1125      H1130   1.059       .  S
C1126      C1127   1.439       .  A
C1127      C1128   1.394       .  A
C1127      H1131   1.054       .  S
C1128      H1132   1.084       .  S
C1133      C1134   1.411       .  A
C1133      C1138   1.396       .  A
C1133      H1143   1.080       .  S
C1134      C1139   1.499       .  S
C1134      C1135   1.410       .  A
C1135      C1136   1.399       .  A
C1135      H1140   1.079       .  S
C1136      C1137   1.401       .  A
C1136      H1141   1.083       .  S
C1137      C1138   1.401       .  A
C1138      H1142   1.083       .  S
C1139      C1144   1.387       .  A
C1139      C1148   1.391       .  A
C1144      C1145   1.396       .  A
C1144      H1149   1.081       .  S
C1145      C1146   1.429       .  A
C1145      H1150   1.040       .  S
C1146      C1147   1.452       .  A
C1147      C1148   1.404       .  A
C1147      H1151   1.064       .  S
C1148      H1152   1.083       .  S
O1153      C1163   1.277       .  A
O1153     Cu1449   2.001       .  S
O1154      C1164   1.277       .  A
O1154     Cu1161   2.008       .  S
O1155      C1165   1.281       .  A
O1155     Cu1449   2.033       .  S
O1156      C1166   1.282       .  A
O1156     Cu1161   2.029       .  S
O1157      C1166   1.276       .  A
O1157     Cu1450   1.997       .  S
O1158      C1165   1.279       .  A
O1158     Cu1162   2.013   1_554  S
O1159      C1164   1.281       .  A
O1159     Cu1450   2.019       .  S
O1160      C1163   1.279       .  A
O1160     Cu1162   2.014   1_554  S
Cu1161     O1441   2.001       .  S
Cu1161     O1443   2.033       .  S
Cu1161    Cu1450   2.370       .  S
Cu1162     O1445   1.997       .  S
Cu1162     O1447   2.019       .  S
Cu1162    Cu1449   2.370   1_556  S
C1163      C1425   1.474       .  S
C1164      C1385   1.484       .  S
C1165      C1365   1.491       .  S
C1166      C1405   1.485       .  S
O1167      C1177   1.278       .  A
O1167     Cu1175   2.014       .  S
O1168      C1178   1.277       .  A
O1168     Cu1463   2.014       .  S
O1169      C1179   1.282       .  A
O1169     Cu1175   2.040       .  S
O1170      C1180   1.282       .  A
O1170     Cu1463   2.037       .  S
O1171     Cu1464   2.005   1_554  S
O1172     Cu1176   1.998       .  S
O1173     Cu1464   2.013   1_554  S
O1174     Cu1176   2.011       .  S
Cu1175     O1456   2.014       .  S
Cu1175     O1458   2.037       .  S
Cu1176     O1459   2.005       .  S
Cu1176     O1461   2.013       .  S
C1177      C1325   1.482       .  S
C1178      C1294   1.471       .  S
C1179      C1314   1.489       .  S
C1180      C1354   1.490       .  S
O1181      C1191   1.281       .  A
O1181     Cu1477   2.027       .  S
O1182      C1192   1.280       .  A
O1182     Cu1189   2.016       .  S
O1183      C1193   1.278       .  A
O1183     Cu1477   2.003       .  S
O1184      C1194   1.277       .  A
O1184     Cu1189   2.001       .  S
O1185      C1770   1.278   1_545  A
O1185     Cu1190   2.006       .  S
O1186      C1769   1.278       .  A
O1186     Cu1478   2.012       .  S
O1187      C1768   1.279   1_545  A
O1187     Cu1190   2.017       .  S
O1188      C1767   1.278       .  A
O1188     Cu1478   2.011       .  S
Cu1189     O1469   2.027       .  S
Cu1189     O1471   2.003       .  S
Cu1189    Cu1766   2.371       .  S
Cu1190     O1474   2.012       .  S
Cu1190     O1476   2.011       .  S
Cu1190    Cu1765   2.371   1_545  S
C1191      O1764   1.278       .  A
C1191      C1265   1.488       .  S
C1192      O1763   1.279       .  A
C1192      C1225   1.486       .  S
C1193      O1762   1.278       .  A
C1193      C1214   1.473       .  S
C1194      O1761   1.278       .  A
C1194      C1245   1.477       .  S
C1195      C1198   1.785       .  S
C1196      C1199   1.795   1_545  S
C1196      C1334   1.660       .  S
C1196      C1345   1.655       .  S
C1197      C1774   1.816       .  S
C1197      C1414   1.670       .  S
C1197      C1434   1.695       .  S
C1198      C1773   1.816       .  S
C1198      C1254   1.638       .  S
C1198      C1274   1.586       .  S
C1199      C1776   1.780       .  S
C1199      C1781   1.649       .  S
C1199      C1810   1.570       .  S
C1200      C1775   1.780       .  S
C1200      C1374   1.648       .  S
C1200      C1394   1.700       .  S
C1201      C1778   1.389       .  A
C1201      C1206   1.398       .  A
C1201      H1211   1.084       .  S
C1202      C1207   1.480       .  S
C1202      C1777   1.389       .  A
C1202      C1203   1.391       .  A
C1203      C1204   1.396       .  A
C1203      H1208   1.083       .  S
C1204      C1205   1.434       .  A
C1204      H1209   1.071       .  S
C1205      C1775   1.649       .  S
C1205      C1782   1.441       .  A
C1206      C1781   1.441   1_545  A
C1206      H1210   1.066       .  S
C1207      C1788   1.406       .  A
C1207      C1216   1.401       .  A
C1212      C1783   1.406       .  A
C1212      C1213   1.402       .  A
C1212      H1217   1.083       .  S
C1213      C1790   1.405       .  A
C1213      H1218   1.083       .  S
C1214      C1789   1.405       .  A
C1214      C1215   1.403       .  A
C1215      C1216   1.394       .  A
C1215      H1219   1.083       .  S
C1216      H1220   1.079       .  S
C1221      C1222   1.405       .  A
C1221      C1226   1.397       .  A
C1221      H1231   1.084       .  S
C1222      C1227   1.480       .  S
C1222      C1799   1.403       .  A
C1223      C1798   1.403   1_545  A
C1223      C1224   1.402       .  A
C1223      H1228   1.083       .  S
C1224      C1801   1.409   1_545  A
C1224      H1229   1.083       .  S
C1225      C1800   1.409       .  A
C1225      C1226   1.406       .  A
C1226      H1230   1.083       .  S
C1227      C1808   1.403       .  A
C1227      C1236   1.396       .  A
C1232      C1803   1.403   1_545  A
C1232      C1233   1.408       .  A
C1232      H1237   1.083       .  S
C1233      C1810   1.401   1_545  A
C1233      H1238   1.055       .  S
C1234      C1775   1.570       .  S
C1234      C1809   1.401       .  A
C1234      C1235   1.425       .  A
C1235      C1236   1.391       .  A
C1235      H1239   1.073       .  S
C1236      H1240   1.083       .  S
C1241      C1818   1.402   1_545  A
C1241      C1246   1.394       .  A
C1241      H1251   1.082       .  S
C1242      C1247   1.472       .  S
C1242      C1817   1.402       .  A
C1242      C1243   1.402       .  A
C1243      C1244   1.398       .  A
C1243      H1248   1.083       .  S
C1244      C1245   1.407       .  A
C1244      H1249   1.083       .  S
C1245      C1822   1.405       .  A
C1246      C1821   1.404   1_545  A
C1246      H1250   1.083       .  S
C1247      C1828   1.387       .  A
C1247      C1256   1.389       .  A
C1252      C1823   1.388   1_545  A
C1252      C1253   1.393       .  A
C1252      H1257   1.084       .  S
C1253      C1830   1.428       .  A
C1253      H1258   1.065       .  S
C1254      C1829   1.428       .  A
C1254      C1255   1.434       .  A
C1255      C1256   1.399       .  A
C1255      H1259   1.064       .  S
C1256      H1260   1.083       .  S
C1261      C1838   1.403       .  A
C1261      C1266   1.400       .  A
C1261      H1271   1.084       .  S
C1262      C1267   1.476       .  S
C1262      C1837   1.403       .  A
C1262      C1263   1.402       .  A
C1263      C1264   1.402       .  A
C1263      H1268   1.081       .  S
C1264      C1265   1.407       .  A
C1264      H1269   1.083       .  S
C1265      C1842   1.408       .  A
C1266      C1841   1.408       .  A
C1266      H1270   1.083       .  S
C1267      C1848   1.387       .  A
C1267      C1276   1.402       .  A
C1272      C1843   1.387       .  A
C1272      C1273   1.386       .  A
C1272      H1277   1.084       .  S
C1273      C1850   1.440       .  A
C1273      H1278   1.076       .  S
C1274      C1849   1.440       .  A
C1274      C1275   1.400       .  A
C1275      C1276   1.412       .  A
C1275      H1279   1.070       .  S
C1276      H1280   1.082       .  S
C1281      C1282   1.397   1_655  A
C1281      C1286   1.404       .  A
C1281      H1291   1.081       .  S
C1282      C1287   1.495   1_455  S
C1283      C1284   1.397       .  A
C1283      H1288   1.082       .  S
C1284      H1289   1.043       .  S
C1285      C1286   1.431   1_455  A
C1286      H1290   1.063       .  S
C1287      C1292   1.410       .  A
C1292      C1293   1.403       .  A
C1292      H1297   1.081       .  S
C1293      C1294   1.403       .  A
C1293      H1298   1.083       .  S
C1295      C1296   1.396       .  A
C1295      H1299   1.084       .  S
C1296      H1300   1.082       .  S
C1301      C1306   1.392       .  A
C1301      H1311   1.084       .  S
C1302      C1307   1.481       .  S
C1302      C1303   1.394       .  A
C1303      C1304   1.408       .  A
C1303      H1308   1.083   1_455  S
C1304      C1305   1.411       .  A
C1304      H1309   1.054   1_455  S
C1306      H1310   1.078       .  S
C1307      C1312   1.405   1_455  A
C1312      C1313   1.406       .  A
C1312      H1317   1.083       .  S
C1313      C1314   1.409       .  A
C1313      H1318   1.083       .  S
C1315      C1316   1.396       .  A
C1315      H1319   1.083       .  S
C1316      H1320   1.083       .  S
C1321      C1326   1.395       .  A
C1321      H1331   1.081       .  S
C1322      C1327   1.489       .  S
C1322      C1323   1.406       .  A
C1323      C1324   1.402       .  A
C1323      H1328   1.082       .  S
C1324      C1325   1.407       .  A
C1324      H1329   1.083       .  S
C1326      H1330   1.083       .  S
C1327      C1336   1.391       .  A
C1332      C1333   1.396       .  A
C1332      H1337   1.084       .  S
C1333      H1338   1.061       .  S
C1334      C1335   1.434       .  A
C1335      C1336   1.400       .  A
C1335      H1339   1.050       .  S
C1336      H1340   1.083       .  S
C1341      C1342   1.388       .  A
C1341      C1346   1.392       .  A
C1341      H1351   1.083       .  S
C1342      C1347   1.493       .  S
C1343      C1344   1.409       .  A
C1343      H1348   1.083       .  S
C1344      H1349   1.050       .  S
C1345      C1346   1.445       .  A
C1346      H1350   1.066       .  S
C1347      C1352   1.410       .  A
C1352      C1353   1.403       .  A
C1352      H1357   1.083       .  S
C1353      C1354   1.406       .  A
C1353      H1358   1.083       .  S
C1355      C1356   1.400       .  A
C1355      H1359   1.083       .  S
C1356      H1360   1.080       .  S
C1361      C1362   1.405       .  A
C1361      C1366   1.397       .  A
C1361      H1371   1.079       .  S
C1362      C1367   1.494       .  S
C1362      C1363   1.409       .  A
C1363      C1364   1.406       .  A
C1363      H1368   1.083       .  S
C1364      C1365   1.408       .  A
C1364      H1369   1.083       .  S
C1365      C1366   1.406       .  A
C1366      H1370   1.083       .  S
C1367      C1372   1.396       .  A
C1367      C1376   1.393       .  A
C1372      C1373   1.406       .  A
C1372      H1377   1.084       .  S
C1373      C1374   1.435       .  A
C1373      H1378   1.057       .  S
C1374      C1375   1.442       .  A
C1375      C1376   1.395       .  A
C1375      H1379   1.073       .  S
C1376      H1380   1.083       .  S
C1381      C1382   1.402       .  A
C1381      C1386   1.397       .  A
C1381      H1391   1.084       .  S
C1382      C1387   1.473       .  S
C1382      C1383   1.403       .  A
C1383      C1384   1.402       .  A
C1383      H1388   1.083       .  S
C1384      C1385   1.409       .  A
C1384      H1389   1.083       .  S
C1385      C1386   1.405       .  A
C1386      H1390   1.083       .  S
C1387      C1392   1.373       .  A
C1387      C1396   1.387       .  A
C1392      C1393   1.387       .  A
C1392      H1397   1.086       .  S
C1393      C1394   1.431       .  A
C1393      H1398   1.038       .  S
C1394      C1395   1.460       .  A
C1395      C1396   1.410       .  A
C1395      H1399   1.078       .  S
C1396      H1400   1.083       .  S
C1401      C1402   1.403       .  A
C1401      C1406   1.401       .  A
C1401      H1411   1.082       .  S
C1402      C1407   1.486       .  S
C1402      C1403   1.406       .  A
C1403      C1404   1.398       .  A
C1403      H1408   1.081       .  S
C1404      C1405   1.404       .  A
C1404      H1409   1.083       .  S
C1405      C1406   1.410       .  A
C1406      H1410   1.083       .  S
C1407      C1412   1.388       .  A
C1407      C1416   1.384       .  A
C1412      C1413   1.407       .  A
C1412      H1417   1.084       .  S
C1413      C1414   1.452       .  A
C1413      H1418   1.059       .  S
C1414      C1415   1.439       .  A
C1415      C1416   1.394       .  A
C1415      H1419   1.053       .  S
C1416      H1420   1.084       .  S
C1421      C1422   1.411       .  A
C1421      C1426   1.396       .  A
C1421      H1431   1.080       .  S
C1422      C1427   1.499       .  S
C1422      C1423   1.410       .  A
C1423      C1424   1.399       .  A
C1423      H1428   1.079       .  S
C1424      C1425   1.401       .  A
C1424      H1429   1.083       .  S
C1425      C1426   1.401       .  A
C1426      H1430   1.083       .  S
C1427      C1432   1.387       .  A
C1427      C1436   1.391       .  A
C1432      C1433   1.396       .  A
C1432      H1437   1.081       .  S
C1433      C1434   1.430       .  A
C1433      H1438   1.039       .  S
C1434      C1435   1.452       .  A
C1435      C1436   1.404       .  A
C1435      H1439   1.064       .  S
C1436      H1440   1.083       .  S
O1441      C1451   1.277       .  A
O1442      C1452   1.277       .  A
O1442     Cu1449   2.007   1_556  S
O1443      C1453   1.281       .  A
O1444      C1454   1.282       .  A
O1444     Cu1449   2.029   1_556  S
O1445      C1454   1.276       .  A
O1446      C1453   1.279       .  A
O1446     Cu1450   2.013       .  S
O1447      C1452   1.281       .  A
O1448      C1451   1.279       .  A
O1448     Cu1450   2.014       .  S
C1451      C1713   1.474       .  S
C1452      C1673   1.484       .  S
C1453      C1653   1.491       .  S
C1454      C1693   1.485       .  S
O1455      C1465   1.278       .  A
O1455     Cu1463   2.014   1_556  S
O1456      C1466   1.277       .  A
O1457      C1467   1.282       .  A
O1457     Cu1463   2.040   1_556  S
O1458      C1468   1.282       .  A
O1460     Cu1464   1.998       .  S
O1462     Cu1464   2.011       .  S
C1465      C1613   1.482       .  S
C1466      C1582   1.471       .  S
C1467      C1602   1.489       .  S
C1468      C1642   1.490       .  S
O1469      C1479   1.281       .  A
O1470      C1480   1.280       .  A
O1470     Cu1477   2.016   1_556  S
O1471      C1481   1.278       .  A
O1472      C1482   1.277       .  A
O1472     Cu1477   2.001   1_556  S
O1473      C2058   1.278   1_545  A
O1473     Cu1478   2.006   1_556  S
O1474      C2057   1.278       .  A
O1475      C2056   1.279   1_545  A
O1475     Cu1478   2.017   1_556  S
O1476      C2055   1.278       .  A
Cu1477    Cu2054   2.371       .  S
Cu1478    Cu2053   2.371   1_545  S
C1479      O2052   1.278       .  A
C1479      C1553   1.488       .  S
C1480      O2051   1.279       .  A
C1480      C1513   1.486       .  S
C1481      O2050   1.278       .  A
C1481      C1502   1.473       .  S
C1482      O2049   1.278       .  A
C1482      C1533   1.477       .  S
C1483      C1486   1.785       .  S
C1484      C1487   1.795   1_545  S
C1484      C1622   1.660       .  S
C1484      C1633   1.655       .  S
C1485      C2062   1.816       .  S
C1485      C1702   1.670       .  S
C1485      C1722   1.695       .  S
C1486      C2061   1.816       .  S
C1486      C1542   1.638       .  S
C1486      C1562   1.586       .  S
C1487      C2064   1.780       .  S
C1487      C2069   1.649       .  S
C1487      C2098   1.570       .  S
C1488      C2063   1.780       .  S
C1488      C1662   1.648       .  S
C1488      C1682   1.700       .  S
C1489      C2066   1.389       .  A
C1489      C1494   1.398       .  A
C1489      H1499   1.084       .  S
C1490      C1495   1.480       .  S
C1490      C2065   1.389       .  A
C1490      C1491   1.391       .  A
C1491      C1492   1.396       .  A
C1491      H1496   1.083       .  S
C1492      C1493   1.434       .  A
C1492      H1497   1.071       .  S
C1493      C2063   1.649       .  S
C1493      C2070   1.441       .  A
C1494      C2069   1.441   1_545  A
C1494      H1498   1.066       .  S
C1495      C2076   1.406       .  A
C1495      C1504   1.401       .  A
C1500      C2071   1.406       .  A
C1500      C1501   1.402       .  A
C1500      H1505   1.083       .  S
C1501      C2078   1.405       .  A
C1501      H1506   1.083       .  S
C1502      C2077   1.405       .  A
C1502      C1503   1.403       .  A
C1503      C1504   1.394       .  A
C1503      H1507   1.083       .  S
C1504      H1508   1.079       .  S
C1509      C1510   1.405       .  A
C1509      C1514   1.397       .  A
C1509      H1519   1.084       .  S
C1510      C1515   1.480       .  S
C1510      C2087   1.403       .  A
C1511      C2086   1.403   1_545  A
C1511      C1512   1.402       .  A
C1511      H1516   1.083       .  S
C1512      C2089   1.409   1_545  A
C1512      H1517   1.083       .  S
C1513      C2088   1.409       .  A
C1513      C1514   1.406       .  A
C1514      H1518   1.083       .  S
C1515      C2096   1.403       .  A
C1515      C1524   1.396       .  A
C1520      C2091   1.403   1_545  A
C1520      C1521   1.408       .  A
C1520      H1525   1.083       .  S
C1521      C2098   1.401   1_545  A
C1521      H1526   1.055       .  S
C1522      C2063   1.570       .  S
C1522      C2097   1.401       .  A
C1522      C1523   1.425       .  A
C1523      C1524   1.391       .  A
C1523      H1527   1.073       .  S
C1524      H1528   1.083       .  S
C1529      C2106   1.402   1_545  A
C1529      C1534   1.394       .  A
C1529      H1539   1.082       .  S
C1530      C1535   1.472       .  S
C1530      C2105   1.402       .  A
C1530      C1531   1.402       .  A
C1531      C1532   1.398       .  A
C1531      H1536   1.083       .  S
C1532      C1533   1.407       .  A
C1532      H1537   1.083       .  S
C1533      C2110   1.405       .  A
C1534      C2109   1.404   1_545  A
C1534      H1538   1.083       .  S
C1535      C2116   1.387       .  A
C1535      C1544   1.389       .  A
C1540      C2111   1.388   1_545  A
C1540      C1541   1.393       .  A
C1540      H1545   1.084       .  S
C1541      C2118   1.428       .  A
C1541      H1546   1.065       .  S
C1542      C2117   1.428       .  A
C1542      C1543   1.434       .  A
C1543      C1544   1.399       .  A
C1543      H1547   1.064       .  S
C1544      H1548   1.083       .  S
C1549      C2126   1.403       .  A
C1549      C1554   1.400       .  A
C1549      H1559   1.084       .  S
C1550      C1555   1.476       .  S
C1550      C2125   1.403       .  A
C1550      C1551   1.402       .  A
C1551      C1552   1.402       .  A
C1551      H1556   1.081       .  S
C1552      C1553   1.407       .  A
C1552      H1557   1.083       .  S
C1553      C2130   1.408       .  A
C1554      C2129   1.408       .  A
C1554      H1558   1.083       .  S
C1555      C2136   1.387       .  A
C1555      C1564   1.402       .  A
C1560      C2131   1.387       .  A
C1560      C1561   1.386       .  A
C1560      H1565   1.084       .  S
C1561      C2138   1.440       .  A
C1561      H1566   1.076       .  S
C1562      C2137   1.440       .  A
C1562      C1563   1.400       .  A
C1563      C1564   1.412       .  A
C1563      H1567   1.070       .  S
C1564      H1568   1.082       .  S
C1569      C1570   1.397   1_655  A
C1569      C1574   1.404       .  A
C1569      H1579   1.081       .  S
C1570      C1575   1.495   1_455  S
C1571      C1572   1.397       .  A
C1571      H1576   1.082       .  S
C1572      H1577   1.043       .  S
C1573      C1574   1.431   1_455  A
C1574      H1578   1.063       .  S
C1575      C1580   1.410       .  A
C1580      C1581   1.403       .  A
C1580      H1585   1.081       .  S
C1581      C1582   1.403       .  A
C1581      H1586   1.083       .  S
C1583      C1584   1.396       .  A
C1583      H1587   1.084       .  S
C1584      H1588   1.082       .  S
C1589      C1594   1.392       .  A
C1589      H1599   1.084       .  S
C1590      C1595   1.481       .  S
C1590      C1591   1.394       .  A
C1591      C1592   1.408       .  A
C1591      H1596   1.083   1_455  S
C1592      C1593   1.411       .  A
C1592      H1597   1.054   1_455  S
C1594      H1598   1.078       .  S
C1595      C1600   1.405   1_455  A
C1600      C1601   1.406       .  A
C1600      H1605   1.083       .  S
C1601      C1602   1.409       .  A
C1601      H1606   1.083       .  S
C1603      C1604   1.396       .  A
C1603      H1607   1.083       .  S
C1604      H1608   1.083       .  S
C1609      C1614   1.395       .  A
C1609      H1619   1.081       .  S
C1610      C1615   1.489       .  S
C1610      C1611   1.406       .  A
C1611      C1612   1.402       .  A
C1611      H1616   1.082       .  S
C1612      C1613   1.407       .  A
C1612      H1617   1.083       .  S
C1614      H1618   1.083       .  S
C1615      C1624   1.391       .  A
C1620      C1621   1.396       .  A
C1620      H1625   1.084       .  S
C1621      H1626   1.061       .  S
C1622      C1623   1.434       .  A
C1623      C1624   1.400       .  A
C1623      H1627   1.050       .  S
C1624      H1628   1.083       .  S
C1629      C1630   1.388       .  A
C1629      C1634   1.392       .  A
C1629      H1639   1.083       .  S
C1630      C1635   1.493       .  S
C1631      C1632   1.409       .  A
C1631      H1636   1.083       .  S
C1632      H1637   1.050       .  S
C1633      C1634   1.445       .  A
C1634      H1638   1.066       .  S
C1635      C1640   1.410       .  A
C1640      C1641   1.403       .  A
C1640      H1645   1.083       .  S
C1641      C1642   1.406       .  A
C1641      H1646   1.083       .  S
C1643      C1644   1.400       .  A
C1643      H1647   1.083       .  S
C1644      H1648   1.080       .  S
C1649      C1650   1.405       .  A
C1649      C1654   1.397       .  A
C1649      H1659   1.079       .  S
C1650      C1655   1.494       .  S
C1650      C1651   1.409       .  A
C1651      C1652   1.406       .  A
C1651      H1656   1.083       .  S
C1652      C1653   1.408       .  A
C1652      H1657   1.083       .  S
C1653      C1654   1.406       .  A
C1654      H1658   1.083       .  S
C1655      C1660   1.396       .  A
C1655      C1664   1.393       .  A
C1660      C1661   1.406       .  A
C1660      H1665   1.084       .  S
C1661      C1662   1.435       .  A
C1661      H1666   1.057       .  S
C1662      C1663   1.442       .  A
C1663      C1664   1.395       .  A
C1663      H1667   1.073       .  S
C1664      H1668   1.083       .  S
C1669      C1670   1.402       .  A
C1669      C1674   1.397       .  A
C1669      H1679   1.084       .  S
C1670      C1675   1.473       .  S
C1670      C1671   1.403       .  A
C1671      C1672   1.402       .  A
C1671      H1676   1.083       .  S
C1672      C1673   1.409       .  A
C1672      H1677   1.083       .  S
C1673      C1674   1.405       .  A
C1674      H1678   1.083       .  S
C1675      C1680   1.373       .  A
C1675      C1684   1.387       .  A
C1680      C1681   1.387       .  A
C1680      H1685   1.086       .  S
C1681      C1682   1.431       .  A
C1681      H1686   1.038       .  S
C1682      C1683   1.460       .  A
C1683      C1684   1.410       .  A
C1683      H1687   1.078       .  S
C1684      H1688   1.083       .  S
C1689      C1690   1.403       .  A
C1689      C1694   1.401       .  A
C1689      H1699   1.082       .  S
C1690      C1695   1.486       .  S
C1690      C1691   1.406       .  A
C1691      C1692   1.398       .  A
C1691      H1696   1.081       .  S
C1692      C1693   1.404       .  A
C1692      H1697   1.083       .  S
C1693      C1694   1.410       .  A
C1694      H1698   1.083       .  S
C1695      C1700   1.388       .  A
C1695      C1704   1.384       .  A
C1700      C1701   1.407       .  A
C1700      H1705   1.084       .  S
C1701      C1702   1.452       .  A
C1701      H1706   1.059       .  S
C1702      C1703   1.439       .  A
C1703      C1704   1.394       .  A
C1703      H1707   1.053       .  S
C1704      H1708   1.084       .  S
C1709      C1710   1.411       .  A
C1709      C1714   1.396       .  A
C1709      H1719   1.080       .  S
C1710      C1715   1.499       .  S
C1710      C1711   1.410       .  A
C1711      C1712   1.399       .  A
C1711      H1716   1.079       .  S
C1712      C1713   1.401       .  A
C1712      H1717   1.083       .  S
C1713      C1714   1.401       .  A
C1714      H1718   1.083       .  S
C1715      C1720   1.387       .  A
C1715      C1724   1.391       .  A
C1720      C1721   1.396       .  A
C1720      H1725   1.081       .  S
C1721      C1722   1.430       .  A
C1721      H1726   1.039       .  S
C1722      C1723   1.452       .  A
C1723      C1724   1.404       .  A
C1723      H1727   1.064       .  S
C1724      H1728   1.083       .  S
O1729      C1739   1.277       .  A
O1729     Cu2025   2.001       .  S
O1730      C1740   1.277       .  A
O1730     Cu1737   2.008       .  S
O1731      C1741   1.281       .  A
O1731     Cu2025   2.032       .  S
O1732      C1742   1.282       .  A
O1732     Cu1737   2.029       .  S
O1733      C1742   1.276       .  A
O1733     Cu2026   1.998       .  S
O1734      C1741   1.279       .  A
O1734     Cu1738   2.013   1_554  S
O1735      C1740   1.281       .  A
O1735     Cu2026   2.019       .  S
O1736      C1739   1.279       .  A
O1736     Cu1738   2.014   1_554  S
Cu1737     O2017   2.001       .  S
Cu1737     O2019   2.032       .  S
Cu1737    Cu2026   2.370       .  S
Cu1738     O2021   1.998       .  S
Cu1738     O2023   2.019       .  S
Cu1738    Cu2025   2.370   1_556  S
C1739      C2001   1.474       .  S
C1740      C1961   1.484       .  S
C1741      C1941   1.491       .  S
C1742      C1981   1.485       .  S
O1743      C1753   1.278       .  A
O1743     Cu1751   2.014       .  S
O1744      C1754   1.277       .  A
O1744     Cu2039   2.014       .  S
O1745      C1755   1.282       .  A
O1745     Cu1751   2.040       .  S
O1746      C1756   1.282       .  A
O1746     Cu2039   2.037       .  S
O1747     Cu2040   2.005   1_554  S
O1748     Cu1752   1.998       .  S
O1749     Cu2040   2.014   1_554  S
O1750     Cu1752   2.011       .  S
Cu1751     O2032   2.014       .  S
Cu1751     O2034   2.037       .  S
Cu1752     O2035   2.005       .  S
Cu1752     O2037   2.014       .  S
C1753      C1901   1.482       .  S
C1754      C1870   1.471       .  S
C1755      C1890   1.489       .  S
C1756      C1930   1.490       .  S
O1757      C1767   1.281   1_565  A
O1757     Cu2053   2.027       .  S
O1758      C1768   1.280       .  A
O1758     Cu1765   2.016       .  S
O1759      C1769   1.278   1_565  A
O1759     Cu2053   2.003       .  S
O1760      C1770   1.277       .  A
O1760     Cu1765   2.001       .  S
O1761     Cu1766   2.005       .  S
O1762     Cu2054   2.012       .  S
O1763     Cu1766   2.017       .  S
O1764     Cu2054   2.011       .  S
Cu1765     O2045   2.027       .  S
Cu1765     O2047   2.003       .  S
Cu1766     O2050   2.012       .  S
Cu1766     O2052   2.011       .  S
C1767      C1841   1.488       .  S
C1768      C1801   1.486       .  S
C1769      C1790   1.473       .  S
C1770      C1821   1.477       .  S
C1771      C1774   1.785   1_565  S
C1772      C1775   1.795       .  S
C1772      C1910   1.660       .  S
C1772      C1921   1.655       .  S
C1773      C1990   1.669       .  S
C1773      C2010   1.695       .  S
C1774      C1830   1.638       .  S
C1774      C1850   1.586       .  S
C1776      C1950   1.648       .  S
C1776      C1970   1.700       .  S
C1777      C1782   1.398       .  A
C1777      H1787   1.084       .  S
C1778      C1783   1.480       .  S
C1778      C1779   1.391   1_545  A
C1779      C1780   1.396       .  A
C1779      H1784   1.083       .  S
C1780      C1781   1.435       .  A
C1780      H1785   1.071       .  S
C1782      H1786   1.066       .  S
C1783      C1792   1.401   1_545  A
C1788      C1789   1.402       .  A
C1788      H1793   1.083       .  S
C1789      H1794   1.083       .  S
C1790      C1791   1.403   1_545  A
C1791      C1792   1.394       .  A
C1791      H1795   1.083       .  S
C1792      H1796   1.079       .  S
C1797      C1798   1.405       .  A
C1797      C1802   1.397       .  A
C1797      H1807   1.084       .  S
C1798      C1803   1.480       .  S
C1799      C1800   1.402       .  A
C1799      H1804   1.083       .  S
C1800      H1805   1.083       .  S
C1801      C1802   1.406       .  A
C1802      H1806   1.083       .  S
C1803      C1812   1.396       .  A
C1808      C1809   1.408       .  A
C1808      H1813   1.083       .  S
C1809      H1814   1.055       .  S
C1810      C1811   1.425       .  A
C1811      C1812   1.391       .  A
C1811      H1815   1.073       .  S
C1812      H1816   1.083       .  S
C1817      C1822   1.394       .  A
C1817      H1827   1.082       .  S
C1818      C1823   1.472       .  S
C1818      C1819   1.402       .  A
C1819      C1820   1.398       .  A
C1819      H1824   1.083       .  S
C1820      C1821   1.407       .  A
C1820      H1825   1.083       .  S
C1822      H1826   1.083       .  S
C1823      C1832   1.389       .  A
C1828      C1829   1.393       .  A
C1828      H1833   1.084       .  S
C1829      H1834   1.065       .  S
C1830      C1831   1.434   1_545  A
C1831      C1832   1.399       .  A
C1831      H1835   1.064       .  S
C1832      H1836   1.083       .  S
C1837      C1842   1.400       .  A
C1837      H1847   1.084       .  S
C1838      C1843   1.477       .  S
C1838      C1839   1.403   1_545  A
C1839      C1840   1.402       .  A
C1839      H1844   1.081       .  S
C1840      C1841   1.407   1_565  A
C1840      H1845   1.083       .  S
C1842      H1846   1.083       .  S
C1843      C1852   1.402       .  A
C1848      C1849   1.386       .  A
C1848      H1853   1.084       .  S
C1849      H1854   1.076       .  S
C1850      C1851   1.400       .  A
C1851      C1852   1.412       .  A
C1851      H1855   1.070   1_545  S
C1852      H1856   1.082   1_545  S
C1857      C1858   1.397   1_655  A
C1857      C1862   1.404       .  A
C1857      H1867   1.081       .  S
C1858      C1863   1.495   1_455  S
C1859      C1860   1.397       .  A
C1859      H1864   1.082       .  S
C1860      H1865   1.043       .  S
C1861      C1862   1.431   1_455  A
C1862      H1866   1.063       .  S
C1863      C1868   1.410       .  A
C1868      C1869   1.403       .  A
C1868      H1873   1.081       .  S
C1869      C1870   1.403       .  A
C1869      H1874   1.083       .  S
C1871      C1872   1.396       .  A
C1871      H1875   1.084       .  S
C1872      H1876   1.082       .  S
C1877      C1882   1.392       .  A
C1877      H1887   1.084       .  S
C1878      C1883   1.481       .  S
C1878      C1879   1.394       .  A
C1879      C1880   1.408       .  A
C1879      H1884   1.083   1_455  S
C1880      C1881   1.411       .  A
C1880      H1885   1.054   1_455  S
C1882      H1886   1.078       .  S
C1883      C1888   1.405   1_455  A
C1888      C1889   1.406       .  A
C1888      H1893   1.083       .  S
C1889      C1890   1.409       .  A
C1889      H1894   1.083       .  S
C1891      C1892   1.396       .  A
C1891      H1895   1.083       .  S
C1892      H1896   1.083       .  S
C1897      C1902   1.395       .  A
C1897      H1907   1.081       .  S
C1898      C1903   1.489       .  S
C1898      C1899   1.406       .  A
C1899      C1900   1.402       .  A
C1899      H1904   1.082       .  S
C1900      C1901   1.407       .  A
C1900      H1905   1.083       .  S
C1902      H1906   1.083       .  S
C1903      C1912   1.391       .  A
C1908      C1909   1.396       .  A
C1908      H1913   1.084       .  S
C1909      H1914   1.061       .  S
C1910      C1911   1.434       .  A
C1911      C1912   1.400       .  A
C1911      H1915   1.050       .  S
C1912      H1916   1.083       .  S
C1917      C1918   1.388       .  A
C1917      C1922   1.392       .  A
C1917      H1927   1.083       .  S
C1918      C1923   1.494       .  S
C1919      C1920   1.409       .  A
C1919      H1924   1.083       .  S
C1920      H1925   1.050       .  S
C1921      C1922   1.445       .  A
C1922      H1926   1.066       .  S
C1923      C1928   1.410       .  A
C1928      C1929   1.403       .  A
C1928      H1933   1.083       .  S
C1929      C1930   1.406       .  A
C1929      H1934   1.083       .  S
C1931      C1932   1.400       .  A
C1931      H1935   1.083       .  S
C1932      H1936   1.080       .  S
C1937      C1938   1.405       .  A
C1937      C1942   1.397       .  A
C1937      H1947   1.079       .  S
C1938      C1943   1.494       .  S
C1938      C1939   1.409       .  A
C1939      C1940   1.406       .  A
C1939      H1944   1.083       .  S
C1940      C1941   1.408       .  A
C1940      H1945   1.083       .  S
C1941      C1942   1.406       .  A
C1942      H1946   1.083       .  S
C1943      C1948   1.396       .  A
C1943      C1952   1.393       .  A
C1948      C1949   1.406       .  A
C1948      H1953   1.084       .  S
C1949      C1950   1.435       .  A
C1949      H1954   1.057       .  S
C1950      C1951   1.442       .  A
C1951      C1952   1.395       .  A
C1951      H1955   1.073       .  S
C1952      H1956   1.083       .  S
C1957      C1958   1.402       .  A
C1957      C1962   1.397       .  A
C1957      H1967   1.084       .  S
C1958      C1963   1.473       .  S
C1958      C1959   1.403       .  A
C1959      C1960   1.402       .  A
C1959      H1964   1.083       .  S
C1960      C1961   1.409       .  A
C1960      H1965   1.083       .  S
C1961      C1962   1.405       .  A
C1962      H1966   1.083       .  S
C1963      C1968   1.373       .  A
C1963      C1972   1.387       .  A
C1968      C1969   1.387       .  A
C1968      H1973   1.086       .  S
C1969      C1970   1.431       .  A
C1969      H1974   1.038       .  S
C1970      C1971   1.460       .  A
C1971      C1972   1.410       .  A
C1971      H1975   1.078       .  S
C1972      H1976   1.083       .  S
C1977      C1978   1.403       .  A
C1977      C1982   1.401       .  A
C1977      H1987   1.082       .  S
C1978      C1983   1.486       .  S
C1978      C1979   1.406       .  A
C1979      C1980   1.398       .  A
C1979      H1984   1.081       .  S
C1980      C1981   1.404       .  A
C1980      H1985   1.083       .  S
C1981      C1982   1.410       .  A
C1982      H1986   1.083       .  S
C1983      C1988   1.388       .  A
C1983      C1992   1.384       .  A
C1988      C1989   1.407       .  A
C1988      H1993   1.084       .  S
C1989      C1990   1.452       .  A
C1989      H1994   1.059       .  S
C1990      C1991   1.439       .  A
C1991      C1992   1.394       .  A
C1991      H1995   1.054       .  S
C1992      H1996   1.084       .  S
C1997      C1998   1.411       .  A
C1997      C2002   1.396       .  A
C1997      H2007   1.080       .  S
C1998      C2003   1.499       .  S
C1998      C1999   1.410       .  A
C1999      C2000   1.399       .  A
C1999      H2004   1.079       .  S
C2000      C2001   1.401       .  A
C2000      H2005   1.083       .  S
C2001      C2002   1.401       .  A
C2002      H2006   1.083       .  S
C2003      C2008   1.387       .  A
C2003      C2012   1.391       .  A
C2008      C2009   1.396       .  A
C2008      H2013   1.081       .  S
C2009      C2010   1.429       .  A
C2009      H2014   1.040       .  S
C2010      C2011   1.452       .  A
C2011      C2012   1.404       .  A
C2011      H2015   1.064       .  S
C2012      H2016   1.083       .  S
O2017      C2027   1.277       .  A
O2018      C2028   1.277       .  A
O2018     Cu2025   2.008   1_556  S
O2019      C2029   1.281       .  A
O2020      C2030   1.282       .  A
O2020     Cu2025   2.029   1_556  S
O2021      C2030   1.276       .  A
O2022      C2029   1.279       .  A
O2022     Cu2026   2.013       .  S
O2023      C2028   1.281       .  A
O2024      C2027   1.279       .  A
O2024     Cu2026   2.014       .  S
C2027      C2289   1.474       .  S
C2028      C2249   1.484       .  S
C2029      C2229   1.491       .  S
C2030      C2269   1.485       .  S
O2031      C2041   1.278       .  A
O2031     Cu2039   2.014   1_556  S
O2032      C2042   1.277       .  A
O2033      C2043   1.282       .  A
O2033     Cu2039   2.040   1_556  S
O2034      C2044   1.282       .  A
O2036     Cu2040   1.998       .  S
O2038     Cu2040   2.011       .  S
C2041      C2189   1.482       .  S
C2042      C2158   1.471       .  S
C2043      C2178   1.488       .  S
C2044      C2218   1.490       .  S
O2045      C2055   1.281   1_565  A
O2046      C2056   1.280       .  A
O2046     Cu2053   2.016   1_556  S
O2047      C2057   1.278   1_565  A
O2048      C2058   1.277       .  A
O2048     Cu2053   2.001   1_556  S
O2049     Cu2054   2.005   1_556  S
O2051     Cu2054   2.017   1_556  S
C2055      C2129   1.488       .  S
C2056      C2089   1.486       .  S
C2057      C2078   1.473       .  S
C2058      C2109   1.477       .  S
C2059      C2062   1.785   1_565  S
C2060      C2063   1.795       .  S
C2060      C2198   1.660       .  S
C2060      C2209   1.655       .  S
C2061      C2278   1.669       .  S
C2061      C2298   1.695       .  S
C2062      C2118   1.638       .  S
C2062      C2138   1.586       .  S
C2064      C2238   1.648       .  S
C2064      C2258   1.700       .  S
C2065      C2070   1.398       .  A
C2065      H2075   1.084       .  S
C2066      C2071   1.480       .  S
C2066      C2067   1.391   1_545  A
C2067      C2068   1.396       .  A
C2067      H2072   1.083       .  S
C2068      C2069   1.435       .  A
C2068      H2073   1.071       .  S
C2070      H2074   1.066       .  S
C2071      C2080   1.401   1_545  A
C2076      C2077   1.402       .  A
C2076      H2081   1.083       .  S
C2077      H2082   1.083       .  S
C2078      C2079   1.403   1_545  A
C2079      C2080   1.394       .  A
C2079      H2083   1.083       .  S
C2080      H2084   1.079       .  S
C2085      C2086   1.405       .  A
C2085      C2090   1.397       .  A
C2085      H2095   1.084       .  S
C2086      C2091   1.480       .  S
C2087      C2088   1.402       .  A
C2087      H2092   1.083       .  S
C2088      H2093   1.083       .  S
C2089      C2090   1.406       .  A
C2090      H2094   1.083       .  S
C2091      C2100   1.396       .  A
C2096      C2097   1.408       .  A
C2096      H2101   1.083       .  S
C2097      H2102   1.055       .  S
C2098      C2099   1.425       .  A
C2099      C2100   1.391       .  A
C2099      H2103   1.073       .  S
C2100      H2104   1.083       .  S
C2105      C2110   1.394       .  A
C2105      H2115   1.082       .  S
C2106      C2111   1.472       .  S
C2106      C2107   1.402       .  A
C2107      C2108   1.398       .  A
C2107      H2112   1.083       .  S
C2108      C2109   1.407       .  A
C2108      H2113   1.083       .  S
C2110      H2114   1.083       .  S
C2111      C2120   1.389       .  A
C2116      C2117   1.393       .  A
C2116      H2121   1.084       .  S
C2117      H2122   1.065       .  S
C2118      C2119   1.434   1_545  A
C2119      C2120   1.399       .  A
C2119      H2123   1.064       .  S
C2120      H2124   1.083       .  S
C2125      C2130   1.400       .  A
C2125      H2135   1.084       .  S
C2126      C2131   1.477       .  S
C2126      C2127   1.403   1_545  A
C2127      C2128   1.402       .  A
C2127      H2132   1.081       .  S
C2128      C2129   1.407   1_565  A
C2128      H2133   1.083       .  S
C2130      H2134   1.083       .  S
C2131      C2140   1.402       .  A
C2136      C2137   1.386       .  A
C2136      H2141   1.084       .  S
C2137      H2142   1.076       .  S
C2138      C2139   1.400       .  A
C2139      C2140   1.412       .  A
C2139      H2143   1.070   1_545  S
C2140      H2144   1.082   1_545  S
C2145      C2146   1.397   1_655  A
C2145      C2150   1.404       .  A
C2145      H2155   1.081       .  S
C2146      C2151   1.495   1_455  S
C2147      C2148   1.397       .  A
C2147      H2152   1.082       .  S
C2148      H2153   1.043       .  S
C2149      C2150   1.431   1_455  A
C2150      H2154   1.063       .  S
C2151      C2156   1.410       .  A
C2156      C2157   1.403       .  A
C2156      H2161   1.081       .  S
C2157      C2158   1.403       .  A
C2157      H2162   1.083       .  S
C2159      C2160   1.396       .  A
C2159      H2163   1.084       .  S
C2160      H2164   1.082       .  S
C2165      C2170   1.392       .  A
C2165      H2175   1.084       .  S
C2166      C2171   1.481       .  S
C2166      C2167   1.394       .  A
C2167      C2168   1.408       .  A
C2167      H2172   1.083   1_455  S
C2168      C2169   1.411       .  A
C2168      H2173   1.054   1_455  S
C2170      H2174   1.078       .  S
C2171      C2176   1.405   1_455  A
C2176      C2177   1.406       .  A
C2176      H2181   1.083       .  S
C2177      C2178   1.409       .  A
C2177      H2182   1.083       .  S
C2179      C2180   1.396       .  A
C2179      H2183   1.083       .  S
C2180      H2184   1.083       .  S
C2185      C2190   1.395       .  A
C2185      H2195   1.081       .  S
C2186      C2191   1.489       .  S
C2186      C2187   1.406       .  A
C2187      C2188   1.402       .  A
C2187      H2192   1.082       .  S
C2188      C2189   1.407       .  A
C2188      H2193   1.083       .  S
C2190      H2194   1.083       .  S
C2191      C2200   1.391       .  A
C2196      C2197   1.396       .  A
C2196      H2201   1.084       .  S
C2197      H2202   1.061       .  S
C2198      C2199   1.434       .  A
C2199      C2200   1.400       .  A
C2199      H2203   1.050       .  S
C2200      H2204   1.083       .  S
C2205      C2206   1.388       .  A
C2205      C2210   1.392       .  A
C2205      H2215   1.083       .  S
C2206      C2211   1.494       .  S
C2207      C2208   1.409       .  A
C2207      H2212   1.083       .  S
C2208      H2213   1.050       .  S
C2209      C2210   1.445       .  A
C2210      H2214   1.066       .  S
C2211      C2216   1.410       .  A
C2216      C2217   1.403       .  A
C2216      H2221   1.083       .  S
C2217      C2218   1.406       .  A
C2217      H2222   1.083       .  S
C2219      C2220   1.400       .  A
C2219      H2223   1.083       .  S
C2220      H2224   1.080       .  S
C2225      C2226   1.405       .  A
C2225      C2230   1.397       .  A
C2225      H2235   1.079       .  S
C2226      C2231   1.494       .  S
C2226      C2227   1.409       .  A
C2227      C2228   1.406       .  A
C2227      H2232   1.083       .  S
C2228      C2229   1.408       .  A
C2228      H2233   1.083       .  S
C2229      C2230   1.406       .  A
C2230      H2234   1.083       .  S
C2231      C2236   1.396       .  A
C2231      C2240   1.393       .  A
C2236      C2237   1.406       .  A
C2236      H2241   1.084       .  S
C2237      C2238   1.435       .  A
C2237      H2242   1.057       .  S
C2238      C2239   1.442       .  A
C2239      C2240   1.395       .  A
C2239      H2243   1.073       .  S
C2240      H2244   1.083       .  S
C2245      C2246   1.402       .  A
C2245      C2250   1.397       .  A
C2245      H2255   1.084       .  S
C2246      C2251   1.473       .  S
C2246      C2247   1.403       .  A
C2247      C2248   1.402       .  A
C2247      H2252   1.083       .  S
C2248      C2249   1.409       .  A
C2248      H2253   1.083       .  S
C2249      C2250   1.405       .  A
C2250      H2254   1.083       .  S
C2251      C2256   1.373       .  A
C2251      C2260   1.387       .  A
C2256      C2257   1.387       .  A
C2256      H2261   1.086       .  S
C2257      C2258   1.431       .  A
C2257      H2262   1.038       .  S
C2258      C2259   1.460       .  A
C2259      C2260   1.410       .  A
C2259      H2263   1.078       .  S
C2260      H2264   1.083       .  S
C2265      C2266   1.403       .  A
C2265      C2270   1.401       .  A
C2265      H2275   1.082       .  S
C2266      C2271   1.486       .  S
C2266      C2267   1.406       .  A
C2267      C2268   1.398       .  A
C2267      H2272   1.081       .  S
C2268      C2269   1.404       .  A
C2268      H2273   1.083       .  S
C2269      C2270   1.410       .  A
C2270      H2274   1.083       .  S
C2271      C2276   1.388       .  A
C2271      C2280   1.384       .  A
C2276      C2277   1.407       .  A
C2276      H2281   1.084       .  S
C2277      C2278   1.452       .  A
C2277      H2282   1.059       .  S
C2278      C2279   1.439       .  A
C2279      C2280   1.394       .  A
C2279      H2283   1.054       .  S
C2280      H2284   1.084       .  S
C2285      C2286   1.411       .  A
C2285      C2290   1.396       .  A
C2285      H2295   1.080       .  S
C2286      C2291   1.499       .  S
C2286      C2287   1.410       .  A
C2287      C2288   1.399       .  A
C2287      H2292   1.079       .  S
C2288      C2289   1.401       .  A
C2288      H2293   1.083       .  S
C2289      C2290   1.401       .  A
C2290      H2294   1.083       .  S
C2291      C2296   1.387       .  A
C2291      C2300   1.391       .  A
C2296      C2297   1.396       .  A
C2296      H2301   1.081       .  S
C2297      C2298   1.429       .  A
C2297      H2302   1.040       .  S
C2298      C2299   1.452       .  A
C2299      C2300   1.404       .  A
C2299      H2303   1.064       .  S
C2300      H2304   1.083       .  S
