geometry optimzed in LAMMPS
_audit_creation_date              2020-11-30 
_audit_creation_method            'lammps2cif' 
_symmetry_space_group_name_H-M    'P1' 
_symmetry_Int_Tables_number       1 
_symmetry_cell_setting            triclinic 
loop_ 
_symmetry_equiv_pos_as_xyz 
  x,y,z 
_cell_length_a                    69.24558656 
_cell_length_b                    69.22772944692814 
_cell_length_c                    68.63646026473249 
_cell_angle_alpha                 89.92446899613415 
_cell_angle_beta                  90.09103653295155 
_cell_angle_gamma                 90.02903176402243 
loop_ 
_atom_site_label 
_atom_site_type_symbol 
_atom_site_fract_x 
_atom_site_fract_y 
_atom_site_fract_z 
_atom_site_charge 
C1          C  0.72881149  0.75636681  0.74248955     0.80000
N2          N  0.74014962  0.76007939  0.72679085    -0.78300
C3          C  0.75599781  0.74909514  0.72311232     0.82400
N4          N  0.76047107  0.73427650  0.73532490    -0.78300
C5          C  0.74928237  0.73038836  0.75110892     0.82500
N6          N  0.73339310  0.74143309  0.75452534    -0.80000
C7          C  0.24883033  0.74069338  0.21724079     0.80000
N8          N  0.26116023  0.73591295  0.23195001    -0.78300
C9          C  0.25700594  0.72106219  0.24426952     0.82400
N10         N  0.24040629  0.71088535  0.24171359    -0.78300
C11         C  0.22798392  0.71538332  0.22705289     0.82500
N12         N  0.23224062  0.73036988  0.21495693    -0.80000
C13         C  0.71879972  0.74445881  0.25045788     0.80000
N14         N  0.73522230  0.75478473  0.24715847    -0.78300
C15         C  0.74775237  0.74933276  0.23296653     0.82400
N16         N  0.74380076  0.73340751  0.22218915    -0.78300
C17         C  0.72743633  0.72299390  0.22516946     0.82500
N18         N  0.71497376  0.72859500  0.23937618    -0.80000
C19         C  0.23558654  0.26643687  0.24829838     0.80000
N20         N  0.23960513  0.25144559  0.26048170    -0.78300
C21         C  0.25579466  0.24056458  0.25800205     0.82400
N22         N  0.26789772  0.24472818  0.24297968    -0.78300
C23         C  0.26410612  0.25963291  0.23061602     0.82500
N24         N  0.24792101  0.27038465  0.23340065    -0.80000
C25         C  0.70896348  0.22115743  0.22561822     0.80000
N26         N  0.72474429  0.20995995  0.22874422    -0.78300
C27         C  0.73642678  0.21291458  0.24437612     0.82400
N28         N  0.73222319  0.22746531  0.25697934    -0.78300
C29         C  0.71641734  0.23886719  0.25410309     0.82500
N30         N  0.70486296  0.23559888  0.23837338    -0.80000
C31         C  0.74946580  0.23698711  0.71491808     0.80000
N32         N  0.73387870  0.22524964  0.71233080    -0.78300
C33         C  0.73000524  0.21082416  0.72521702     0.82400
N34         N  0.74168830  0.20844952  0.74093436    -0.78300
C35         C  0.75726664  0.21999970  0.74373035     0.82500
N36         N  0.76112902  0.23420981  0.73064483    -0.80000
C37         C  0.20600974  0.71570366  0.72927929     0.80000
N38         N  0.22299079  0.70593666  0.73106470    -0.78300
C39         C  0.23625234  0.71131710  0.74464558     0.82400
N40         N  0.23245115  0.72660171  0.75639490    -0.78300
C41         C  0.21549192  0.73637582  0.75497458     0.82500
N42         N  0.20235419  0.73086068  0.74133392    -0.80000
O43         O  0.03448215  0.02270329  0.98705264    -0.88600
C44         C  0.06846938  0.02070762  0.03479253     0.87400
Mg45       Mg  0.01239663  0.04390223  0.98421151     1.58100
O46         O  0.03187039  0.98537367  0.03446209    -0.88300
O47         O  0.03559377  0.99109609  0.98850699    -0.75600
C48         C  0.96878443  0.04861119  0.07091477     0.92500
O49         O  0.05011854  0.05765142  0.01319565    -0.75500
O50         O  0.97171162  0.05947808  0.05618296    -0.83000
Mg51       Mg  0.06286461  0.03303268  0.99483567     1.58000
C52         C  0.99917204  0.97450163  0.08369990     0.92400
O53         O  0.07890998  0.00981395  0.97596344    -0.81200
H54         H  0.01847702  0.96349295  0.02108061    -0.06600
C55         C  0.02108523  0.03320843  0.06636929     0.87400
O56         O  0.98932767  0.02300837  0.99557959    -0.75700
O57         O  0.06161795  0.01409295  0.01952681    -0.88500
O58         O  0.01698014  0.97438911  0.07871641    -0.81300
C59         C  0.07718349  0.97058242  0.05638430     0.92500
C60         C  0.08508483  0.99250167  0.97818864     0.92400
Mg61       Mg  0.98844432  0.00784286  0.05198257     1.58000
O62         O  0.97481752  0.03120682  0.07145823    -0.81200
O63         O  0.00026769  0.98279135  0.03357068    -0.75500
O64         O  0.07633968  0.97466667  0.03829518    -0.81300
O65         O  0.06410656  0.05532607  0.96992169    -0.83000
O66         O  0.97404930  0.06794621  0.00904248    -0.81300
C67         C  0.01707555  0.97654981  0.02958506     0.86800
O68         O  0.98871784  0.02665087  0.02737475    -0.88500
O69         O  0.01696829  0.01717991  0.05959407    -0.88600
O70         O  0.01545296  0.04878339  0.05837957    -0.75700
Mg71       Mg  0.05545379  0.98412744  0.01429661     1.58000
O72         O  0.06320959  0.97414358  0.06789373    -0.83000
H73         H  0.02166515  0.00590862  0.96719566    -0.06800
O74         O  0.01861474  0.05425923  0.01298540    -0.88300
H75         H  0.03171050  0.07645373  0.02611902    -0.06600
H76         H  0.97012524  0.00954345  0.01326777    -0.06800
C77         C  0.03326389  0.06343181  0.01758792     0.86800
C78         C  0.03047399  0.00667659  0.98019127     0.87400
C79         C  0.98202784  0.01960257  0.01221932     0.87400
H80         H  0.03027276  0.03399891  0.07909409    -0.06700
O81         O  0.06162928  0.01643229  0.05143467    -0.75800
Mg82       Mg  0.99515878  0.05660046  0.03306176     1.58000
H83         H  0.08026489  0.03090779  0.03391539    -0.06800
C84         C  0.05110825  0.06779109  0.96583641     0.92400
O85         O  0.98854190  0.06551904  0.98018623    -0.83000
C86         C  0.97472324  0.07148889  0.99075905     0.92500
O87         O  0.07970372  0.98202647  0.99244641    -0.83000
Mg88       Mg  0.03861061  0.99557498  0.06341659     1.58200
O89         O  0.03360434  0.06543862  0.97100856    -0.81300
O90         O  0.98743351  0.98706019  0.07713676    -0.83000
C91         C  0.08716016  0.26701976  0.91373938     0.80000
N92         N  0.09778774  0.27016543  0.89728229    -0.78300
C93         C  0.10621703  0.25506476  0.88780956     0.82400
N94         N  0.10401595  0.23693486  0.89501336    -0.78300
C95         C  0.09340766  0.23352260  0.91122511     0.82500
N96         N  0.08490780  0.24862074  0.92047546    -0.80000
C97         C  0.91495500  0.10082520  0.26569617     0.80000
N98         N  0.91944364  0.09508922  0.24730520    -0.78300
C99         C  0.90831628  0.10037059  0.23192844     0.82400
N100        N  0.89266604  0.11171393  0.23496723    -0.78300
C101        C  0.88807353  0.11796768  0.25315301     0.82500
N102        N  0.89920250  0.11231468  0.26855505    -0.80000
C103        C  0.27267048  0.91083297  0.09507622     0.80000
N104        N  0.27531990  0.89288600  0.10296967    -0.78300
C105        C  0.25984806  0.88122051  0.10651784     0.82400
N106        N  0.24186879  0.88755776  0.10204826    -0.78300
C107        C  0.23895781  0.90540224  0.09451733     0.82500
N108        N  0.25439684  0.91704131  0.09110856    -0.80000
O109        O  0.98305674  0.53147550  0.44845619    -0.88600
C110        C  0.93404993  0.56273700  0.45631018     0.87400
Mg111      Mg  0.98567879  0.51151530  0.42476205     1.58100
O112        O  0.93891664  0.52445667  0.48985602    -0.88300
O113        O  0.98350215  0.53087832  0.48045993    -0.75600
C114        C  0.90231279  0.46308338  0.42474534     0.92500
O115        O  0.95367169  0.54799162  0.41626669    -0.75500
O116        O  0.91596023  0.46681731  0.41284987    -0.83000
Mg117      Mg  0.97287304  0.55992094  0.44083968     1.58000
C118        C  0.89272725  0.48806955  0.50093337     0.92400
O119        O  0.99243510  0.57526492  0.46368492    -0.81200
H120        H  0.95468959  0.51073472  0.50998355    -0.06600
C121        C  0.90511059  0.51459607  0.44286118     0.87400
O122        O  0.97778962  0.48602248  0.44468182    -0.75700
O123        O  0.94982849  0.55591364  0.46120973    -0.88500
O124        O  0.89635916  0.50616276  0.50234105    -0.81300
C125        C  0.91593725  0.56792781  0.50827668     0.92500
C126        C  0.99079233  0.58096604  0.48130105     0.92400
Mg127      Mg  0.92329248  0.48169383  0.46519879     1.58000
O128        O  0.90302256  0.46858759  0.44243263    -0.81200
O129        O  0.94257290  0.49295405  0.48991747    -0.75500
O130        O  0.93344166  0.56800179  0.50259510    -0.81300
O131        O  0.99610824  0.56445230  0.41780088    -0.83000
O132        O  0.96153151  0.47303217  0.40025566    -0.81300
C133        C  0.94549464  0.50953790  0.49729671     0.86800
O134        O  0.94615165  0.48451200  0.44444918    -0.88500
O135        O  0.91318339  0.51015512  0.45832029    -0.88600
O136        O  0.91206275  0.51001205  0.42637247    -0.75700
Mg137      Mg  0.95756799  0.54900476  0.49060209     1.58000
O138        O  0.90497051  0.55335992  0.50541032    -0.83000
H139        H  0.00405770  0.51844719  0.46357407    -0.06800
O140        O  0.95607639  0.51643852  0.41717420    -0.88300
H141        H  0.94058085  0.53018114  0.39685081    -0.06600
H142        H  0.96244786  0.46518447  0.45858370    -0.06800
C143        C  0.94990348  0.53135559  0.40944305     0.86800
C144        C  0.99088182  0.52680512  0.46400373     0.87400
C145        C  0.96201543  0.47788226  0.44940651     0.87400
H146        H  0.89202135  0.52308388  0.44337640    -0.06700
O147        O  0.91819874  0.55512011  0.46159374    -0.75800
Mg148      Mg  0.93752260  0.49179571  0.41517201     1.58000
H149        H  0.93373378  0.57523762  0.44685858    -0.06800
C150        C  0.00033429  0.55333848  0.40365309     0.92400
O151        O  0.98885898  0.49007699  0.40024330    -0.83000
C152        C  0.97880845  0.47586085  0.39426347     0.92500
O153        O  0.97756372  0.57459595  0.49240953    -0.83000
Mg154      Mg  0.90923974  0.53013223  0.48181395     1.58200
O155        O  0.99603814  0.53541943  0.40393226    -0.81300
O156        O  0.89993670  0.47783113  0.48742170    -0.83000
C157        C  0.70446697  0.40722592  0.38034864     0.80000
N158        N  0.70304226  0.39126171  0.36877822    -0.78300
C159        C  0.71930111  0.38238110  0.36202148     0.82400
N160        N  0.73690545  0.38954368  0.36710937    -0.78300
C161        C  0.73853471  0.40533241  0.37867282     0.82500
N162        N  0.72224674  0.41404858  0.38517580    -0.80000
C163        C  0.05738281  0.59280143  0.20514284     0.80000
N164        N  0.04921736  0.59079710  0.22303102    -0.78300
C165        C  0.05720039  0.59912243  0.23903766     0.82400
N166        N  0.07352961  0.60978829  0.23698405    -0.78300
C167        C  0.08198804  0.61198147  0.21924875     0.82500
N168        N  0.07396887  0.60328596  0.20335399    -0.80000
C169        C  0.87628362  0.76887268  0.55005511     0.80000
N170        N  0.87891571  0.75058960  0.54324557    -0.78300
C171        C  0.87147188  0.73512175  0.55288339     0.82400
N172        N  0.86113747  0.73812447  0.56934524    -0.78300
C173        C  0.85839497  0.75619102  0.57643325     0.82500
N174        N  0.86616200  0.77157859  0.56686308    -0.80000
O175        O  0.00305895  0.92678676  0.44325843    -0.88600
C176        C  0.98241098  0.98168869  0.44452035     0.87400
Mg177      Mg  0.01566558  0.91387262  0.46844578     1.58100
O178        O  0.02659356  0.97671567  0.42001125    -0.88300
O179        O  0.01146657  0.93429922  0.41343264    -0.75600
C180        C  0.07686435  0.97990200  0.50289701     0.92500
O181        O  0.98350211  0.94917244  0.47870408    -0.75500
O182        O  0.06795634  0.96489998  0.50886880    -0.83000
Mg183      Mg  0.97534797  0.93993079  0.44737356     1.58000
C184        C  0.07132413  0.01421616  0.42920809     0.92400
O185        O  0.96438309  0.93036760  0.41644307    -0.81200
H186        H  0.04218344  0.96466712  0.39876022    -0.06600
C187        C  0.03000266  0.99483173  0.47597730     0.87400
O188        O  0.04617489  0.92077606  0.45717148    -0.75700
O189        O  0.98749968  0.96650548  0.43651977    -0.88500
O190        O  0.05396851  0.01433556  0.42288866    -0.81300
C191        C  0.99490996  0.01263455  0.39894729     0.92500
C192        C  0.96382615  0.93835375  0.39963623     0.92400
Mg193      Mg  0.06388356  0.97647162  0.45569932     1.58000
O194        O  0.07472367  0.98621979  0.48559824    -0.81200
O195        O  0.05644286  0.96732318  0.42446859    -0.75500
O196        O  0.98911736  0.99520121  0.39990919    -0.81300
O197        O  0.96214769  0.91239065  0.46046177    -0.83000
O198        O  0.05153769  0.92100021  0.50381897    -0.81300
C199        C  0.04171438  0.96963475  0.41367838     0.86800
O200        O  0.05241271  0.95021408  0.46700154    -0.88500
O201        O  0.03653718  0.99027723  0.45983959    -0.88600
O202        O  0.02962253  0.98299951  0.49019519    -0.75700
Mg203      Mg  0.00063829  0.96529235  0.40840765     1.58000
O204        O  0.00976966  0.01839474  0.40823932    -0.83000
H205        H  0.01601463  0.90792497  0.42553784    -0.06800
O206        O  0.01373508  0.94081866  0.48354112    -0.88300
H207        H  0.99774305  0.95325454  0.50427096    -0.06600
H208        H  0.07178247  0.93431347  0.45257489    -0.06800
C209        C  0.99839816  0.94781195  0.48953175     0.86800
C210        C  0.01017472  0.92228582  0.42738340     0.87400
C211        C  0.05750645  0.93512277  0.45887450     0.87400
H212        H  0.02410363  0.00915150  0.47794468    -0.06700
O213        O  0.99358944  0.99624571  0.44576584    -0.75800
Mg214      Mg  0.04033636  0.95183033  0.49562302     1.58000
H215        H  0.96820726  0.98246935  0.45098768    -0.06800
C216        C  0.96870328  0.90244335  0.47465393     0.92400
O217        O  0.02927859  0.89965194  0.49439614    -0.83000
C218        C  0.04437112  0.90398266  0.50397051     0.92500
O219        O  0.97403662  0.95298716  0.39547912    -0.83000
Mg220      Mg  0.02410383  0.00387775  0.43451955     1.58200
O221        O  0.98631487  0.90360909  0.47992703    -0.81300
O222        O  0.07655396  0.00347331  0.44326904    -0.83000
C223        C  0.08509273  0.71207098  0.55906984     0.80000
N224        N  0.08231535  0.73107687  0.55484587    -0.78300
C225        C  0.09236243  0.74496411  0.56446954     0.82400
N226        N  0.10529727  0.73976457  0.57836616    -0.78300
C227        C  0.10832264  0.72085449  0.58267011     0.82500
N228        N  0.09810058  0.70702679  0.57307751    -0.80000
C229        C  0.26354748  0.06085324  0.36829024     0.80000
N230        N  0.26564583  0.07748691  0.35778618    -0.78300
C231        C  0.24979792  0.08788619  0.35232106     0.82400
N232        N  0.23196327  0.08161483  0.35766006    -0.78300
C233        C  0.22965275  0.06524136  0.36823284     0.82500
N234        N  0.24551866  0.05495359  0.37344296    -0.80000
C235        C  0.91352094  0.87719099  0.20860414     0.80000
N236        N  0.91948762  0.88098562  0.22712860    -0.78300
C237        C  0.91084698  0.87230567  0.24260975     0.82400
N238        N  0.89617899  0.85973232  0.23942001    -0.78300
C239        C  0.88988594  0.85586010  0.22111678     0.82500
N240        N  0.89853230  0.86472222  0.20570908    -0.80000
O241        O  0.48849229  0.44040990  0.94402187    -0.88600
C242        C  0.53712634  0.40840928  0.94971029     0.87400
Mg243      Mg  0.48508470  0.45998281  0.92007573     1.58100
O244        O  0.53446518  0.44723547  0.98257260    -0.88300
O245        O  0.48943318  0.44137252  0.97595852    -0.75600
C246        C  0.56861668  0.50743344  0.91517730     0.92500
O247        O  0.51566006  0.42257945  0.91078511    -0.75500
O248        O  0.55488079  0.50275518  0.90371911    -0.83000
Mg249      Mg  0.49749020  0.41157013  0.93656823     1.58000
C250        C  0.58143821  0.48262161  0.99165919     0.92400
O251        O  0.47869112  0.39702005  0.96079643    -0.81200
H252        H  0.52011116  0.46138444  0.00337830    -0.06600
C253        C  0.56646109  0.45593946  0.93416790     0.87400
O254        O  0.49449020  0.48570457  0.93894579    -0.75700
O255        O  0.52172206  0.41538034  0.95549342    -0.88500
O256        O  0.57708190  0.46473654  0.99323301    -0.81300
C257        C  0.55784695  0.40398609  0.00079549     0.92500
C258        C  0.48176749  0.39129774  0.97823897     0.92400
Mg259      Mg  0.54986690  0.48951099  0.95692474     1.58000
O260        O  0.56870941  0.50257799  0.93308134    -0.81200
O261        O  0.53168839  0.47878904  0.98265822    -0.75500
O262        O  0.54004375  0.40396447  0.99616237    -0.81300
O263        O  0.47304616  0.40724999  0.91491822    -0.83000
O264        O  0.50859738  0.49749042  0.89362138    -0.81300
C265        C  0.52866574  0.46231485  0.99024719     0.86800
O266        O  0.52608528  0.48663006  0.93719903    -0.88500
O267        O  0.55912678  0.46083473  0.94982126    -0.88600
O268        O  0.55873368  0.46005635  0.91788442    -0.75700
Mg269      Mg  0.51566054  0.42304098  0.98500936     1.58000
O270        O  0.56879255  0.41825928  0.99682792    -0.83000
H271        H  0.46834034  0.45393691  0.95975411    -0.06800
O272        O  0.51412990  0.45420218  0.91117162    -0.88300
H273        H  0.52821494  0.43971837  0.89040806    -0.06600
H274        H  0.51085585  0.50655877  0.95157004    -0.06800
C275        C  0.51952233  0.43899986  0.90345957     0.86800
C276        C  0.48140744  0.44539687  0.95977706     0.87400
C277        C  0.51061080  0.49365764  0.94271348     0.87400
H278        H  0.57949526  0.44735081  0.93436681    -0.06700
O279        O  0.55333852  0.41600464  0.95382594    -0.75800
Mg280      Mg  0.53300950  0.47843076  0.90765889     1.58000
H281        H  0.53675499  0.39581882  0.94041523    -0.06800
C282        C  0.46835478  0.41823734  0.90078890     0.92400
O283        O  0.48102855  0.48093569  0.89524432    -0.83000
C284        C  0.49096310  0.49492679  0.88859338     0.92500
O285        O  0.49575396  0.39770962  0.98833023    -0.83000
Mg286      Mg  0.56357067  0.44103925  0.97329481     1.58200
O287        O  0.47311249  0.43602436  0.90043289    -0.81300
O288        O  0.57451669  0.49314619  0.97813115    -0.83000
C289        C  0.41623426  0.36834954  0.70384873     0.80000
N290        N  0.42173046  0.37358646  0.72210202    -0.78300
C291        C  0.41283961  0.36627246  0.73811872     0.82400
N292        N  0.39819719  0.35342076  0.73575149    -0.78300
C293        C  0.39230107  0.34811560  0.71761436     0.82500
N294        N  0.40130339  0.35566809  0.70165633    -0.80000
C295        C  0.59307969  0.20470964  0.05131690     0.80000
N296        N  0.58943078  0.22307799  0.04549279    -0.78300
C297        C  0.59912370  0.23824856  0.05326458     0.82400
N298        N  0.61267545  0.23489486  0.06718179    -0.78300
C299        C  0.61636978  0.21659181  0.07339543     0.82500
N300        N  0.60651690  0.20148355  0.06544308    -0.80000
C301        C  0.76438799  0.55684622  0.86966571     0.80000
N302        N  0.76646753  0.57415285  0.86029498    -0.78300
C303        C  0.75062485  0.58399439  0.85393204     0.82400
N304        N  0.73285482  0.57638449  0.85697967    -0.78300
C305        C  0.73050133  0.55921078  0.86606991     0.82500
N306        N  0.74632535  0.54947539  0.87242364    -0.80000
O307        O  0.93467635  0.46673020  0.05562722    -0.88600
C308        C  0.93468712  0.48691614  0.00001624     0.87400
Mg309      Mg  0.96001084  0.45427199  0.06803010     1.58100
O310        O  0.91013598  0.44278928  0.00526415    -0.88300
O311        O  0.90511086  0.45781928  0.04854996    -0.75600
C312        C  0.99145625  0.39126455  0.00188724     0.92500
O313        O  0.96919847  0.48603409  0.03183581    -0.75500
O314        O  0.99842795  0.40127346  0.01581638    -0.83000
Mg315      Mg  0.93840153  0.49424437  0.04190026     1.58000
C316        C  0.91928431  0.39798236  0.96700101     0.92400
O317        O  0.90809429  0.50546739  0.05223782    -0.81200
H318        H  0.88886799  0.42744006  0.01742345    -0.06600
C319        C  0.96536417  0.43877494  0.98606662     0.87400
O320        O  0.94839273  0.42373577  0.06175839    -0.75700
O321        O  0.92689446  0.48194225  0.01544777    -0.88500
O322        O  0.91304979  0.41536729  0.96639709    -0.81300
C323        C  0.88846806  0.47452471  0.96973085     0.92500
C324        C  0.89119016  0.50585770  0.04471765     0.92400
Mg325      Mg  0.94500886  0.40537674  0.00583016     1.58000
O326        O  0.97403095  0.39333636  0.99638505    -0.81200
O327        O  0.91427627  0.41307658  0.01512890    -0.75500
O328        O  0.88935347  0.47947965  0.98758106    -0.81300
O329        O  0.95203436  0.50746127  0.06923667    -0.83000
O330        O  0.99427972  0.41809373  0.06007177    -0.81300
C331        C  0.90368262  0.42777541  0.01248450     0.86800
O332        O  0.95700544  0.41722070  0.03179033    -0.88500
O333        O  0.94940618  0.43245264  0.99110869    -0.88600
O334        O  0.97965554  0.43939542  0.99773222    -0.75700
Mg335      Mg  0.89906862  0.46858479  0.01745865     1.58000
O336        O  0.89845320  0.46049534  0.96313352    -0.83000
H337        H  0.91762139  0.45345883  0.07494014    -0.06800
O338        O  0.97408643  0.45584101  0.04033148    -0.88300
H339        H  0.99437529  0.47172409  0.02715210    -0.06600
H340        H  0.94310251  0.39806458  0.04850831    -0.06800
C341        C  0.97990575  0.47112369  0.03301576     0.86800
C342        C  0.91911624  0.45936042  0.06042951     0.87400
C343        C  0.94944024  0.41229324  0.04733417     0.87400
H344        H  0.96707640  0.44438149  0.97146305    -0.06700
O345        O  0.93576606  0.47566071  0.98541627    -0.75800
Mg346      Mg  0.98560788  0.42907107  0.02913123     1.58000
H347        H  0.94120388  0.50108130  0.99908140    -0.06800
C348        C  0.96638801  0.50126293  0.07908500     0.92400
O349        O  0.98600504  0.44066562  0.08165657    -0.83000
C350        C  0.99500297  0.42533699  0.07716927     0.92500
O351        O  0.88655534  0.49522260  0.03040983    -0.83000
Mg352      Mg  0.92439021  0.44533186  0.97758528     1.58200
O353        O  0.97200323  0.48377086  0.07788041    -0.81300
O354        O  0.93231942  0.39267553  0.97889174    -0.83000
C355        C  0.70206673  0.55273311  0.10490185     0.80000
N356        N  0.72077201  0.54852515  0.10050687    -0.78300
C357        C  0.73552668  0.55689591  0.11047694     0.82400
N358        N  0.73141556  0.56970144  0.12478375    -0.78300
C359        C  0.71289295  0.57431753  0.12926233     0.82500
N360        N  0.69820530  0.56576645  0.11926137    -0.80000
C361        C  0.05263114  0.37142578  0.26810910     0.80000
N362        N  0.04764465  0.37587656  0.24945505    -0.78300
C363        C  0.05794480  0.36891822  0.23424245     0.82400
N364        N  0.07336026  0.35742483  0.23771362    -0.78300
C365        C  0.07852753  0.35247765  0.25614644     0.82500
N366        N  0.06812514  0.35961296  0.27143305    -0.80000
C367        C  0.88157623  0.20302053  0.91473327     0.80000
N368        N  0.87105348  0.20016736  0.89814878    -0.78300
C369        C  0.86254377  0.21543886  0.88898847     0.82400
N370        N  0.86478217  0.23345846  0.89635128    -0.78300
C371        C  0.87532672  0.23658113  0.91264717     0.82500
N372        N  0.88365632  0.22128843  0.92178595    -0.80000
O373        O  0.46878236  0.04895555  0.93876204    -0.88600
C374        C  0.48983947  0.99421784  0.93693224     0.87400
Mg375      Mg  0.45781166  0.06168819  0.96458468     1.58100
O376        O  0.44402443  0.99970743  0.91571262    -0.88300
O377        O  0.45858244  0.04247901  0.90924689    -0.75600
C378        C  0.39995695  0.99469098  0.00290904     0.92500
O379        O  0.49060323  0.02569342  0.97243284    -0.75500
O380        O  0.40922934  0.00961155  0.00851349    -0.83000
Mg381      Mg  0.49667604  0.03569334  0.94097159     1.58000
C382        C  0.40017507  0.96166764  0.92847936     0.92400
O383        O  0.50527830  0.04646805  0.91013016    -0.81200
H384        H  0.42658417  0.01250608  0.89637832    -0.06600
C385        C  0.44501730  0.98075204  0.97184902     0.87400
O386        O  0.42669496  0.05475894  0.95536535    -0.75700
O387        O  0.48394699  0.00961408  0.92993688    -0.88500
O388        O  0.41672610  0.96183669  0.92024339    -0.81300
C389        C  0.47461924  0.96450817  0.89174464     0.92500
C390        C  0.50482035  0.03993251  0.89275576     0.92400
Mg391      Mg  0.40953751  0.99915002  0.95474064     1.58000
O392        O  0.40086848  0.98881985  0.98533684    -0.81200
O393        O  0.41469127  0.00897393  0.92315510    -0.75500
O394        O  0.48000416  0.98209174  0.89267211    -0.81300
O395        O  0.51090859  0.06252924  0.95391185    -0.83000
O396        O  0.42495491  0.05407236  0.00307626    -0.81300
C397        C  0.42840072  0.00703204  0.91102516     0.86800
O398        O  0.42142626  0.02530411  0.96567550    -0.88500
O399        O  0.43721416  0.98542847  0.95628474    -0.88600
O400        O  0.44612866  0.99231416  0.98625269    -0.75700
Mg401      Mg  0.46913118  0.01176868  0.90263943     1.58000
O402        O  0.46043002  0.95822374  0.90180399    -0.83000
H403        H  0.45488826  0.06843363  0.92241069    -0.06800
O404        O  0.46103200  0.03472754  0.97962013    -0.88300
H405        H  0.47827156  0.02162557  0.99893767    -0.06600
H406        H  0.40087668  0.04110848  0.95279628    -0.06800
C407        C  0.47664162  0.02734237  0.98436275     0.86800
C408        C  0.46077611  0.05400815  0.92346104     0.87400
C409        C  0.41560518  0.04038114  0.95799365     0.87400
H410        H  0.45133151  0.96652926  0.97315738    -0.06700
O411        O  0.47891692  0.97952776  0.93861299    -0.75800
Mg412      Mg  0.43558039  0.02329615  0.99336543     1.58000
H413        H  0.50455419  0.99335876  0.94215011    -0.06800
C414        C  0.50514617  0.07282427  0.96811746     0.92400
O415        O  0.44567289  0.07569446  0.99112045    -0.83000
C416        C  0.43171478  0.07127000  0.00225320     0.92500
O417        O  0.49489452  0.02516255  0.88819433    -0.83000
Mg418      Mg  0.44764826  0.97221891  0.92957565     1.58200
O419        O  0.48773817  0.07213565  0.97404361    -0.81300
O420        O  0.39629096  0.97228339  0.94300662    -0.83000
C421        C  0.55085246  0.10158680  0.69918386     0.80000
N422        N  0.56722771  0.11228801  0.69700360    -0.78300
C423        C  0.57707541  0.11871171  0.71296171     0.82400
N424        N  0.57048995  0.11416099  0.73106099    -0.78300
C425        C  0.55425067  0.10347733  0.73341619     0.82500
N426        N  0.54457959  0.09729858  0.71741262    -0.80000
C427        C  0.37981260  0.26527375  0.05454558     0.80000
N428        N  0.38390828  0.24723736  0.04795004    -0.78300
C429        C  0.37619809  0.23133999  0.05650664     0.82400
N430        N  0.36422626  0.23362283  0.07194292    -0.78300
C431        C  0.35990819  0.25151001  0.07886087     0.82500
N432        N  0.36780990  0.26735385  0.07012909    -0.80000
C433        C  0.20786471  0.90619314  0.87929336     0.80000
N434        N  0.22604398  0.91315513  0.88237141    -0.78300
C435        C  0.24143020  0.90529509  0.87304140     0.82400
N436        N  0.23852493  0.89040030  0.86064969    -0.78300
C437        C  0.22063997  0.88306918  0.85747422     0.82500
N438        N  0.20525908  0.89097684  0.86690612    -0.80000
O439        O  0.55152819  0.52793681  0.50377609    -0.88600
C440        C  0.49842948  0.52814448  0.47924075     0.87400
Mg441      Mg  0.56360460  0.50229819  0.51573922     1.58100
O442        O  0.50031959  0.54984272  0.52537958    -0.88300
O443        O  0.54382073  0.55707979  0.51338651    -0.75600
C444        C  0.49503252  0.46501990  0.57302193     0.92500
O445        O  0.53038388  0.49424334  0.48074319    -0.75500
O446        O  0.50965047  0.45894808  0.56349828    -0.83000
Mg447      Mg  0.54041008  0.52568527  0.47491001     1.58000
C448        C  0.45964362  0.53687948  0.56731557     0.92400
O449        O  0.55115053  0.55681546  0.46675241    -0.81200
H450        H  0.51142335  0.56986351  0.54311008    -0.06600
C451        C  0.48212207  0.49370941  0.52504411     0.87400
O452        O  0.55506662  0.51190769  0.54654428    -0.75700
O453        O  0.51314587  0.53604802  0.48568931    -0.88500
O454        O  0.46031966  0.54442288  0.55031507    -0.81300
C455        C  0.46645362  0.57270375  0.49280071     0.92500
C456        C  0.54363406  0.57368465  0.46655414     0.92400
Mg457      Mg  0.49880694  0.51221168  0.56111980     1.58000
O458        O  0.48903441  0.48230088  0.57110703    -0.81200
O459        O  0.50811437  0.54350778  0.55560787    -0.75500
O460        O  0.48434203  0.57276983  0.48839932    -0.81300
O461        O  0.56864923  0.51334170  0.46287922    -0.83000
O462        O  0.55453190  0.46469038  0.54929532    -0.81300
C463        C  0.50652873  0.55513072  0.54139031     0.86800
O464        O  0.52551823  0.50142916  0.55065545    -0.88500
O465        O  0.48650647  0.50936415  0.53253977    -0.88600
O466        O  0.49382683  0.47954841  0.52465922    -0.75700
Mg467      Mg  0.51361805  0.56305111  0.50083483     1.58000
O468        O  0.45978347  0.56160544  0.50602760    -0.83000
H469        H  0.56974511  0.54455910  0.51895285    -0.06800
O470        O  0.53684350  0.48726931  0.51135636    -0.88300
H471        H  0.52507313  0.46807831  0.49308329    -0.06600
H472        H  0.54020299  0.51477151  0.57183187    -0.06800
C473        C  0.53067544  0.48251921  0.49508944     0.86800
C474        C  0.55574989  0.54320866  0.51208334     0.87400
C475        C  0.54022183  0.50933057  0.55707519     0.87400
H476        H  0.46809926  0.49215109  0.51827680    -0.06700
O477        O  0.48337139  0.52584724  0.48959472    -0.75800
Mg478      Mg  0.52433094  0.47359378  0.53687408     1.58000
H479        H  0.49855560  0.52256223  0.46453838    -0.06800
C480        C  0.57799374  0.49866752  0.46897443     0.92400
O481        O  0.57690064  0.47628919  0.52912566    -0.83000
C482        C  0.57197547  0.46555082  0.54327501     0.92500
O483        O  0.52812976  0.57752395  0.47564144    -0.83000
Mg484      Mg  0.47353748  0.53505460  0.52030725     1.58200
O485        O  0.57567180  0.49212915  0.48618169    -0.81300
O486        O  0.47108802  0.52355458  0.57258254    -0.83000
C487        C  0.60140307  0.76431861  0.42365119     0.80000
N488        N  0.59945000  0.74585161  0.43022708    -0.78300
C489        C  0.61002919  0.73124659  0.42244744     0.82400
N490        N  0.62269511  0.73524832  0.40795954    -0.78300
C491        C  0.62464292  0.75348781  0.40096571     0.82500
N492        N  0.61388913  0.76801797  0.40874852    -0.80000
C493        C  0.40452743  0.58474733  0.75780812     0.80000
N494        N  0.39056311  0.59794091  0.76220451    -0.78300
C495        C  0.38188151  0.60833797  0.74774420     0.82400
N496        N  0.38727309  0.60545450  0.72896104    -0.78300
C497        C  0.40090706  0.59219872  0.72435152     0.82500
N498        N  0.40939063  0.58181471  0.73882778    -0.80000
C499        C  0.76338193  0.41231839  0.59922676     0.80000
N500        N  0.76535098  0.39451710  0.60754380    -0.78300
C501        C  0.74939527  0.38430019  0.61298455     0.82400
N502        N  0.73157972  0.39193920  0.60993741    -0.78300
C503        C  0.72942930  0.40964392  0.60179901     0.82500
N504        N  0.74539697  0.41970746  0.59649098    -0.80000
O505        O  0.44836967  0.99259707  0.51819709    -0.88600
C506        C  0.45312218  0.94637032  0.55411504     0.87400
Mg507      Mg  0.42548457  0.99493660  0.49741830     1.58100
O508        O  0.48628482  0.94561319  0.51537052    -0.88300
O509        O  0.48001936  0.99108708  0.51735681    -0.75600
C510        C  0.42003710  0.90821893  0.45551886     0.92500
O511        O  0.41501928  0.96645802  0.53668699    -0.75500
O512        O  0.40920949  0.92288817  0.45810328    -0.83000
Mg513      Mg  0.44018712  0.98530894  0.54758869     1.58000
C514        C  0.49526709  0.89609936  0.48353067     0.92400
O515        O  0.46395783  0.00480600  0.56180823    -0.81200
H516        H  0.50757945  0.95836559  0.50050317    -0.06600
C517        C  0.43775758  0.91387518  0.50770503     0.87400
O518        O  0.44506953  0.98356726  0.47297468    -0.75700
O519        O  0.45914960  0.96112744  0.54596022    -0.88500
O520        O  0.49622662  0.90143101  0.50135663    -0.81300
C521        C  0.50356949  0.92593142  0.56122138     0.92500
C522        C  0.48165200  0.00312412  0.56695980     0.92400
Mg523      Mg  0.46145934  0.92752063  0.47343739     1.58000
O524        O  0.43751246  0.90799543  0.46140718    -0.81200
O525        O  0.48713173  0.94596249  0.48341308    -0.75500
O526        O  0.49940723  0.94376025  0.55943150    -0.81300
O527        O  0.41822328  0.00965374  0.54972134    -0.83000
O528        O  0.40023056  0.96947366  0.46028026    -0.81300
C529        C  0.49437082  0.95005155  0.49992740     0.86800
O530        O  0.44249201  0.95196258  0.47390432    -0.88500
O531        O  0.45361888  0.92056089  0.50287024    -0.88600
O532        O  0.42194946  0.92144911  0.50215397    -0.75700
Mg533      Mg  0.48859854  0.96649172  0.53802053     1.58000
O534        O  0.49928427  0.91368618  0.54799434    -0.83000
H535        H  0.46435517  0.01153284  0.50324129    -0.06800
O536        O  0.41597428  0.96637432  0.50472725    -0.88300
H537        H  0.39512225  0.95303783  0.51970671    -0.06600
H538        H  0.45796623  0.96566682  0.45355629    -0.06800
C539        C  0.40805077  0.96178605  0.52020428     0.86800
C540        C  0.46413430  0.99910520  0.51279374     0.87400
C541        C  0.44866517  0.96688769  0.46613041     0.87400
H542        H  0.43732441  0.90152325  0.51734917    -0.06700
O543        O  0.45694362  0.92958075  0.54776100    -0.75800
Mg544      Mg  0.41285144  0.94608181  0.48148651     1.58000
H545        H  0.44377847  0.94782192  0.56663142    -0.06800
C546        C  0.40448034  0.01336156  0.53791108     0.92400
O547        O  0.40218127  0.99821167  0.47473566    -0.83000
C548        C  0.39602701  0.98746055  0.46104527     0.92500
O549        O  0.49197987  0.98900719  0.56135899    -0.83000
Mg550      Mg  0.47642344  0.91719910  0.52382314     1.58200
O551        O  0.40502758  0.00806414  0.52013391    -0.81300
O552        O  0.48223389  0.90242886  0.47208199    -0.83000
C553        C  0.37781438  0.70810730  0.41505303     0.80000
N554        N  0.36453860  0.70476862  0.40077743    -0.78300
C555        C  0.35469545  0.71975065  0.39255465     0.82400
N556        N  0.35836532  0.73810779  0.39855509    -0.78300
C557        C  0.37166600  0.74164567  0.41264899     0.82500
N558        N  0.38126007  0.72656742  0.42080383    -0.80000
C559        C  0.20926037  0.06429311  0.58609019     0.80000
N560        N  0.20613270  0.08124455  0.59572999    -0.78300
C561        C  0.22102140  0.09370243  0.59906825     0.82400
N562        N  0.23895627  0.08911473  0.59259996    -0.78300
C563        C  0.24233562  0.07226140  0.58320937     0.82500
N564        N  0.22745179  0.05988083  0.58004897    -0.80000
C565        C  0.55528380  0.87548187  0.75809474     0.80000
N566        N  0.57185097  0.86531299  0.76139847    -0.78300
C567        C  0.58201058  0.85783960  0.74618871     0.82400
N568        N  0.57570268  0.86085679  0.72770168    -0.78300
C569        C  0.55953958  0.87133984  0.72413562     0.82500
N570        N  0.54935345  0.87852934  0.73940927    -0.80000
C571        C  0.23970310  0.25651427  0.72451916     0.80000
N572        N  0.22751690  0.25997691  0.73962251    -0.78300
C573        C  0.21152382  0.24885867  0.74238850     0.82400
N574        N  0.20775007  0.23410105  0.72981615    -0.78300
C575        C  0.21993184  0.23037235  0.71470235     0.82500
N576        N  0.23585229  0.24163023  0.71226603    -0.80000
C577        C  0.21823981  0.11207490  0.60984850    -0.03400
C578        C  0.23218366  0.12675273  0.60824409    -0.06000
C579        C  0.23078577  0.14355064  0.61932703    -0.21100
C580        C  0.21561455  0.14607948  0.63257611     0.24600
C581        C  0.20124870  0.13170912  0.63385397    -0.18700
C582        C  0.20251108  0.11488627  0.62248195    -0.08700
C583        C  0.21571924  0.16387965  0.64469956    -0.18900
C584        C  0.20757849  0.16534026  0.66248276    -0.23700
C585        C  0.21055925  0.18243960  0.67537860     0.26600
C586        C  0.19715737  0.18645344  0.69018731    -0.20500
C587        C  0.19998519  0.20207042  0.70290940    -0.10100
C588        C  0.21641377  0.21392751  0.70118559    -0.10700
C589        C  0.22989774  0.20972306  0.68648774    -0.03600
C590        C  0.22709373  0.19417892  0.67386107    -0.18700
H591        H  0.24438199  0.12520233  0.59851353     0.10400
H592        H  0.24195301  0.15443266  0.61790272     0.10400
H593        H  0.18906425  0.13339478  0.64354539     0.10100
H594        H  0.19149173  0.10388133  0.62396582     0.11200
H595        H  0.22405071  0.17592884  0.63907887     0.11300
H596        H  0.19891135  0.15352465  0.66810150     0.13200
H597        H  0.18444317  0.17749147  0.69189590     0.09700
H598        H  0.18935231  0.20478582  0.71412424     0.11800
H599        H  0.24286956  0.21830479  0.68483102     0.08400
H600        H  0.23825725  0.19118310  0.66329562     0.11200
C601        C  0.55350672  0.87528051  0.70374419    -0.03400
C602        C  0.56122514  0.86445397  0.68826595    -0.06000
C603        C  0.55596431  0.86845321  0.66898945    -0.21100
C604        C  0.54317391  0.88357497  0.66467986     0.24600
C605        C  0.53528291  0.89430824  0.68015851    -0.18700
C606        C  0.54036741  0.89016638  0.69946577    -0.08700
C607        C  0.53784839  0.88734705  0.64400276    -0.18900
C608        C  0.53278001  0.90498173  0.63746059    -0.23700
C609        C  0.52697557  0.90926669  0.61700697     0.26600
C610        C  0.52768958  0.92850906  0.61066043    -0.20500
C611        C  0.52088161  0.93365771  0.59222674    -0.10100
C612        C  0.51305721  0.91969167  0.57960199    -0.10700
C613        C  0.51279824  0.90029046  0.58567125    -0.03600
C614        C  0.51962323  0.89511482  0.60423056    -0.18700
H615        H  0.57129828  0.85280708  0.69103793     0.10400
H616        H  0.56208890  0.85983966  0.65737070     0.10400
H617        H  0.52492589  0.90570262  0.67745549     0.10100
H618        H  0.53413797  0.89876164  0.71102872     0.11200
H619        H  0.53903884  0.87543190  0.63382037     0.11300
H620        H  0.53344262  0.91713276  0.64743334     0.13200
H621        H  0.53321942  0.93970869  0.62016148     0.09700
H622        H  0.52132838  0.94875116  0.58805537     0.11800
H623        H  0.50660793  0.88924731  0.57641215     0.08400
H624        H  0.51838614  0.88019111  0.60873236     0.11200
C625        C  0.26208206  0.06762473  0.57647274    -0.03400
C626        C  0.27520674  0.08254400  0.57220578    -0.06000
C627        C  0.29394433  0.07828441  0.56599624    -0.21100
C628        C  0.30011287  0.05906791  0.56450370     0.24600
C629        C  0.28702079  0.04410730  0.56874721    -0.18700
C630        C  0.26811169  0.04835738  0.57449984    -0.08700
C631        C  0.32001114  0.05494325  0.55777969    -0.18900
C632        C  0.33062674  0.04046987  0.56528335    -0.23700
C633        C  0.35033969  0.03577565  0.55833442     0.26600
C634        C  0.36378336  0.02799170  0.57147511    -0.20500
C635        C  0.38191814  0.02184987  0.56502676    -0.10100
C636        C  0.38677125  0.02291452  0.54517720    -0.10700
C637        C  0.37342553  0.03106096  0.53206783    -0.03600
C638        C  0.35543619  0.03755239  0.53859201    -0.18700
H639        H  0.27091017  0.09753273  0.57345318     0.10400
H640        H  0.30374117  0.09002047  0.56261246     0.10400
H641        H  0.29129805  0.02913699  0.56729284     0.10100
H642        H  0.25829927  0.03658575  0.57768244     0.11200
H643        H  0.32638058  0.06462701  0.54710125     0.11300
H644        H  0.32490790  0.03210879  0.57738803     0.13200
H645        H  0.36010732  0.02636010  0.58672606     0.09700
H646        H  0.39176357  0.01539306  0.57543561     0.11800
H647        H  0.37667416  0.03190478  0.51665742     0.08400
H648        H  0.34522158  0.04311307  0.52803131     0.11200
C649        C  0.41215479  0.89050790  0.44626667    -0.03400
C650        C  0.39258565  0.88911007  0.44089522    -0.06000
C651        C  0.38493852  0.87151957  0.43430976    -0.21100
C652        C  0.39662120  0.85497784  0.43320323     0.24600
C653        C  0.41638159  0.85666329  0.43763488    -0.18700
C654        C  0.42401107  0.87416079  0.44413538    -0.08700
C655        C  0.38798698  0.83613678  0.42743399    -0.18900
C656        C  0.39499229  0.81919167  0.43410610    -0.23700
C657        C  0.38741769  0.79977354  0.42880494     0.26600
C658        C  0.39338890  0.78389713  0.44003621    -0.20500
C659        C  0.38791911  0.76514079  0.43502863    -0.10100
C660        C  0.37631109  0.76173175  0.41858705    -0.10700
C661        C  0.36994445  0.77763421  0.40751531    -0.03600
C662        C  0.37550551  0.79646527  0.41249770    -0.18700
H663        H  0.38307065  0.90143749  0.44228078     0.10400
H664        H  0.36973337  0.87067422  0.43067183     0.10400
H665        H  0.42603415  0.84446965  0.43615935     0.10100
H666        H  0.43919491  0.87471965  0.44790801     0.11200
H667        H  0.37511272  0.83640843  0.41841769     0.11300
H668        H  0.40677640  0.81946476  0.44456393     0.13200
H669        H  0.40258404  0.78597896  0.45264570     0.09700
H670        H  0.39301777  0.75327551  0.44395625     0.11800
H671        H  0.36109220  0.77550558  0.39467765     0.08400
H672        H  0.37089216  0.80820871  0.40319807     0.11200
C673        C  0.50960831  0.88217886  0.47561519    -0.03400
C674        C  0.51063818  0.87896311  0.45539642    -0.06000
C675        C  0.52382939  0.86578409  0.44766960    -0.21100
C676        C  0.53613480  0.85519323  0.45989704     0.24600
C677        C  0.53534225  0.85849829  0.48013981    -0.18700
C678        C  0.52224109  0.87190414  0.48789833    -0.08700
C679        C  0.54966708  0.84107616  0.45088538    -0.18900
C680        C  0.55593931  0.82501937  0.46002619    -0.23700
C681        C  0.56792571  0.80993330  0.45036848     0.26600
C682        C  0.56689570  0.79089616  0.45730773    -0.20500
C683        C  0.57765194  0.77617629  0.44858394    -0.10100
C684        C  0.58995899  0.78013262  0.43276656    -0.10700
C685        C  0.59128799  0.79929707  0.42601681    -0.03600
C686        C  0.58040710  0.81403763  0.43470819    -0.18700
H687        H  0.50125392  0.88668982  0.44545497     0.10400
H688        H  0.52421586  0.86364457  0.43203204     0.10400
H689        H  0.54496029  0.85096064  0.48998040     0.10100
H690        H  0.52190596  0.87411092  0.50351520     0.11200
H691        H  0.55322438  0.84321453  0.43563166     0.11300
H692        H  0.55085299  0.82197304  0.47467107     0.13200
H693        H  0.55752095  0.78733087  0.46941835     0.09700
H694        H  0.57629514  0.76165652  0.45430707     0.11800
H695        H  0.60075420  0.80293975  0.41402167     0.08400
H696        H  0.58203144  0.82863557  0.42929451     0.11200
C697        C  0.44560082  0.54349626  0.58199908    -0.03400
C698        C  0.43841751  0.52998141  0.59541359    -0.06000
C699        C  0.42831957  0.53599365  0.61182850    -0.21100
C700        C  0.42539449  0.55568939  0.61546530     0.24600
C701        C  0.43138354  0.56925600  0.60133475    -0.18700
C702        C  0.44136004  0.56314850  0.58462542    -0.08700
C703        C  0.41727235  0.56102653  0.63476859    -0.18900
C704        C  0.41928574  0.57844233  0.64322360    -0.23700
C705        C  0.41426821  0.58165743  0.66400633     0.26600
C706        C  0.40714825  0.59966783  0.66991964    -0.20500
C707        C  0.40273301  0.60308053  0.68951367    -0.10100
C708        C  0.40587788  0.58869441  0.70366853    -0.10700
C709        C  0.41343828  0.57081347  0.69780257    -0.03600
C710        C  0.41750744  0.56728930  0.67818138    -0.18700
H711        H  0.44134471  0.51470587  0.59362064     0.10400
H712        H  0.42369166  0.52520726  0.62227654     0.10400
H713        H  0.42890133  0.58454629  0.60331663     0.10100
H714        H  0.44674236  0.57381468  0.57443694     0.11200
H715        H  0.41074572  0.54944964  0.64321222     0.11300
H716        H  0.42521985  0.59053189  0.63514327     0.13200
H717        H  0.40480929  0.61104080  0.65931815     0.09700
H718        H  0.39704220  0.61705950  0.69362370     0.11800
H719        H  0.41601713  0.55945539  0.70835523     0.08400
H720        H  0.42357904  0.55344111  0.67420762     0.11200
C721        C  0.45337626  0.58636879  0.48248650    -0.03400
C722        C  0.43349858  0.58703134  0.48665685    -0.06000
C723        C  0.42151558  0.60057072  0.47741747    -0.21100
C724        C  0.42918060  0.61390872  0.46407776     0.24600
C725        C  0.44894357  0.61293119  0.45953115    -0.18700
C726        C  0.46087035  0.59933971  0.46860892    -0.08700
C727        C  0.41632944  0.62858805  0.45494923    -0.18900
C728        C  0.42263398  0.64644116  0.45036697    -0.23700
C729        C  0.41028123  0.66174484  0.44164633     0.26600
C730        C  0.41521235  0.68110360  0.44497053    -0.20500
C731        C  0.40454533  0.69603403  0.43650527    -0.10100
C732        C  0.38880103  0.69199666  0.42417653    -0.10700
C733        C  0.38389416  0.67256968  0.42071474    -0.03600
C734        C  0.39448465  0.65757603  0.42941604    -0.18700
H735        H  0.42722442  0.57721421  0.49718623     0.10400
H736        H  0.40629329  0.60090913  0.48101379     0.10400
H737        H  0.45521830  0.62257905  0.44885126     0.10100
H738        H  0.47605484  0.59915294  0.46485775     0.11200
H739        H  0.40116621  0.62501064  0.45312089     0.11300
H740        H  0.43734055  0.65046084  0.45413505     0.13200
H741        H  0.42739062  0.68471075  0.45420978     0.09700
H742        H  0.40883809  0.71078180  0.43948097     0.11800
H743        H  0.37190243  0.66893880  0.41125982     0.08400
H744        H  0.39057332  0.64279099  0.42617144     0.11200
C745        C  0.55301098  0.58982726  0.45609182    -0.03400
C746        C  0.54138540  0.60465554  0.44857585    -0.06000
C747        C  0.54957722  0.62171968  0.44175242    -0.21100
C748        C  0.56960524  0.62462624  0.44250268     0.24600
C749        C  0.58147919  0.60935777  0.44902804    -0.18700
C750        C  0.57319397  0.59200701  0.45567984    -0.08700
C751        C  0.57678108  0.64425194  0.43737634    -0.18900
C752        C  0.59472480  0.65103950  0.44060611    -0.23700
C753        C  0.59926264  0.67175491  0.43724879     0.26600
C754        C  0.61677894  0.67710205  0.42857407    -0.20500
C755        C  0.62050257  0.69650729  0.42411912    -0.10100
C756        C  0.60694974  0.71096471  0.42871290    -0.10700
C757        C  0.58989070  0.70565510  0.43837501    -0.03600
C758        C  0.58605812  0.68627082  0.44253075    -0.18700
H759        H  0.52579316  0.60331963  0.44859997     0.10400
H760        H  0.54006224  0.63307551  0.43665159     0.10400
H761        H  0.59700725  0.61084980  0.44953495     0.10100
H762        H  0.58246032  0.58077998  0.46147607     0.11200
H763        H  0.56615425  0.65423591  0.43146825     0.11300
H764        H  0.60620338  0.64159447  0.44557719     0.13200
H765        H  0.62727453  0.66619451  0.42463349     0.09700
H766        H  0.63388508  0.70016087  0.41684602     0.11800
H767        H  0.57920082  0.71640559  0.44220724     0.08400
H768        H  0.57267108  0.68261740  0.44979272     0.11200
C769        C  0.70988279  0.41751866  0.59792066    -0.03400
C770        C  0.70769498  0.43611891  0.59005203    -0.06000
C771        C  0.68943007  0.44310637  0.58515141    -0.21100
C772        C  0.67287191  0.43173922  0.58797893     0.24600
C773        C  0.67493063  0.41328818  0.59634165    -0.18700
C774        C  0.69325990  0.40629484  0.60131170    -0.08700
C775        C  0.65424275  0.43916912  0.58028999    -0.18900
C776        C  0.63674468  0.43114343  0.58329728    -0.23700
C777        C  0.61951340  0.43836121  0.57266556     0.26600
C778        C  0.60130224  0.43882750  0.58166385    -0.20500
C779        C  0.58538040  0.44694825  0.57194299    -0.10100
C780        C  0.58751377  0.45449422  0.55303345    -0.10700
C781        C  0.60550383  0.45285438  0.54373161    -0.03600
C782        C  0.62123875  0.44484092  0.55336385    -0.18700
H783        H  0.72013343  0.44520709  0.58730601     0.10400
H784        H  0.68829756  0.45733395  0.57867071     0.10400
H785        H  0.66263398  0.40391901  0.59848551     0.10100
H786        H  0.69442122  0.39187609  0.60732863     0.11200
H787        H  0.65509403  0.45195928  0.57113546     0.11300
H788        H  0.63485131  0.41948864  0.59367592     0.13200
H789        H  0.59957941  0.43357093  0.59642402     0.09700
H790        H  0.57166930  0.44795898  0.57943977     0.11800
H791        H  0.60759300  0.45815082  0.52902778     0.08400
H792        H  0.63484700  0.44387912  0.54567750     0.11200
C793        C  0.49076122  0.01779537  0.57984353    -0.03400
C794        C  0.51091358  0.01776652  0.58259340    -0.06000
C795        C  0.51972383  0.03103149  0.59509099    -0.21100
C796        C  0.50866128  0.04451568  0.60541933     0.24600
C797        C  0.48851485  0.04489067  0.60240033    -0.18700
C798        C  0.47967493  0.03166480  0.58973017    -0.08700
C799        C  0.51871915  0.05765165  0.61932131    -0.18900
C800        C  0.51004512  0.06525431  0.63509309    -0.23700
C801        C  0.52054203  0.07586921  0.65071351     0.26600
C802        C  0.51266326  0.07569184  0.66949860    -0.20500
C803        C  0.52233863  0.08441086  0.68499873    -0.10100
C804        C  0.54015162  0.09377000  0.68213247    -0.10700
C805        C  0.54772288  0.09472198  0.66314389    -0.03600
C806        C  0.53803083  0.08582552  0.64756114    -0.18700
H807        H  0.51996034  0.00740621  0.57511259     0.10400
H808        H  0.53524914  0.03047767  0.59700510     0.10400
H809        H  0.47952760  0.05542421  0.60966268     0.10100
H810        H  0.46415422  0.03215605  0.58785373     0.11200
H811        H  0.53418134  0.05949753  0.61751218     0.11300
H812        H  0.49497454  0.06190745  0.63780514     0.13200
H813        H  0.49914982  0.06831103  0.67232928     0.09700
H814        H  0.51590589  0.08353249  0.69934129     0.11800
H815        H  0.56130698  0.10197653  0.66038732     0.08400
H816        H  0.54426699  0.08677125  0.63315070     0.11200
C817        C  0.38436080  0.94939173  0.92116960    -0.03400
C818        C  0.37151400  0.94127757  0.93467226    -0.06000
C819        C  0.35410839  0.93323707  0.92854586    -0.21100
C820        C  0.34892105  0.93333800  0.90879107     0.24600
C821        C  0.36238163  0.94033849  0.89503365    -0.18700
C822        C  0.38003894  0.94824729  0.90122533    -0.08700
C823        C  0.32894863  0.92701609  0.90381070    -0.18900
C824        C  0.32053257  0.92895690  0.88623670    -0.23700
C825        C  0.30001892  0.92361886  0.88297462     0.26600
C826        C  0.29467997  0.91508567  0.86528684    -0.20500
C827        C  0.27559788  0.90934635  0.86205757    -0.10100
C828        C  0.26132112  0.91249180  0.87627155    -0.10700
C829        C  0.26649447  0.92176675  0.89369778    -0.03600
C830        C  0.28570190  0.92717964  0.89708034    -0.18700
H831        H  0.37457555  0.94193456  0.95014709     0.10400
H832        H  0.34423114  0.92775799  0.93945822     0.10400
H833        H  0.35923152  0.94035312  0.87962145     0.10100
H834        H  0.38970817  0.95453825  0.89057172     0.11200
H835        H  0.32036207  0.92103129  0.91560781     0.11300
H836        H  0.32870331  0.93401917  0.87379307     0.13200
H837        H  0.30539973  0.91242779  0.85413239     0.09700
H838        H  0.27201979  0.90239256  0.84839245     0.11800
H839        H  0.25580651  0.92441930  0.90488029     0.08400
H840        H  0.28931075  0.93425607  0.91066412     0.11200
C841        C  0.48535306  0.95152098  0.87832729    -0.03400
C842        C  0.50451830  0.95603116  0.87331237    -0.06000
C843        C  0.51467388  0.94477500  0.85992233    -0.21100
C844        C  0.50588932  0.92891875  0.85080558     0.24600
C845        C  0.48677813  0.92410416  0.85599550    -0.18700
C846        C  0.47666014  0.93524247  0.86974948    -0.08700
C847        C  0.51737880  0.91783654  0.83622975    -0.18900
C848        C  0.50960628  0.90795951  0.82121432    -0.23700
C849        C  0.52150640  0.89891527  0.80554695     0.26600
C850        C  0.51358204  0.89702084  0.78681379    -0.20500
C851        C  0.52452933  0.88942475  0.77149754    -0.10100
C852        C  0.54363580  0.88317802  0.77458706    -0.10700
C853        C  0.55137409  0.88443858  0.79350428    -0.03600
C854        C  0.54047314  0.89225663  0.80879955    -0.18700
H855        H  0.51171536  0.96836960  0.87975426     0.10400
H856        H  0.52939907  0.94873625  0.85637338     0.10400
H857        H  0.47968119  0.91170625  0.84960726     0.10100
H858        H  0.46192264  0.93140198  0.87332900     0.11200
H859        H  0.53296790  0.91936614  0.83697856     0.11300
H860        H  0.49403359  0.90792180  0.81933568     0.13200
H861        H  0.49896606  0.90181914  0.78390641     0.09700
H862        H  0.51797471  0.88844636  0.75719817     0.11800
H863        H  0.56595977  0.87960708  0.79645889     0.08400
H864        H  0.54690554  0.89291475  0.82315787     0.11200
C865        C  0.51533927  0.05000012  0.87700601    -0.03400
C866        C  0.52014271  0.06969117  0.87844843    -0.06000
C867        C  0.52745871  0.07963532  0.86223404    -0.21100
C868        C  0.52996208  0.07005053  0.84439618     0.24600
C869        C  0.52636012  0.05009374  0.84343581    -0.18700
C870        C  0.51902116  0.04023818  0.85948921    -0.08700
C871        C  0.53607122  0.08092003  0.82678551    -0.18900
C872        C  0.52942030  0.07601071  0.80900224    -0.23700
C873        C  0.53549990  0.08489176  0.79028566     0.26600
C874        C  0.52489442  0.08017255  0.77352474    -0.20500
C875        C  0.53077182  0.08656196  0.75520783    -0.10100
C876        C  0.54751016  0.09784185  0.75312600    -0.10700
C877        C  0.55796847  0.10297940  0.76994423    -0.03600
C878        C  0.55205865  0.09654297  0.78836489    -0.18700
H879        H  0.51745868  0.07757005  0.89179276     0.10400
H880        H  0.53043523  0.09495019  0.86339437     0.10400
H881        H  0.52896875  0.04207125  0.83017207     0.10100
H882        H  0.51581260  0.02499246  0.85803199     0.11200
H883        H  0.54542405  0.09334473  0.82866524     0.11300
H884        H  0.51864846  0.06463408  0.80800204     0.13200
H885        H  0.51213426  0.07116585  0.77454125     0.09700
H886        H  0.52231612  0.08233063  0.74263347     0.11800
H887        H  0.57096365  0.11161838  0.76885649     0.08400
H888        H  0.56083796  0.10024060  0.80084606     0.11200
C889        C  0.42309123  0.08711242  0.01384073    -0.03400
C890        C  0.40380279  0.08652457  0.02017453    -0.06000
C891        C  0.39523597  0.10298985  0.02842404    -0.21100
C892        C  0.40578923  0.12024493  0.03034672     0.24600
C893        C  0.42543792  0.12028983  0.02526699    -0.18700
C894        C  0.43390881  0.10400886  0.01701122    -0.08700
C895        C  0.39617433  0.13816853  0.03734101    -0.18900
C896        C  0.40165969  0.15574324  0.03082775    -0.23700
C897        C  0.39359521  0.17460917  0.03727979     0.26600
C898        C  0.39949339  0.19128036  0.02723865    -0.20500
C899        C  0.39355064  0.20957619  0.03325701    -0.10100
C900        C  0.38151370  0.21174203  0.04955496    -0.10700
C901        C  0.37523974  0.19505069  0.05944306    -0.03600
C902        C  0.38125031  0.17666467  0.05342453    -0.18700
H903        H  0.39513366  0.07369009  0.01795743     0.10400
H904        H  0.38016049  0.10249354  0.03256706     0.10400
H905        H  0.43429741  0.13299181  0.02741809     0.10100
H906        H  0.44892624  0.10482199  0.01267845     0.11200
H907        H  0.38401959  0.13667306  0.04715840     0.11300
H908        H  0.41278209  0.15646130  0.01970908     0.13200
H909        H  0.40901352  0.19019136  0.01478780     0.09700
H910        H  0.39865166  0.22205092  0.02523037     0.11800
H911        H  0.36598990  0.19618679  0.07209289     0.08400
H912        H  0.37653797  0.16428991  0.06176044     0.11200
C913        C  0.87819527  0.25657480  0.91983282    -0.03400
C914        C  0.88850301  0.26007272  0.93708667    -0.06000
C915        C  0.89239304  0.27896664  0.94301881    -0.21100
C916        C  0.88610686  0.29482554  0.93189535     0.24600
C917        C  0.87523319  0.29138389  0.91493984    -0.18700
C918        C  0.87127598  0.27245568  0.90903173    -0.08700
C919        C  0.89268574  0.31438937  0.93780926    -0.18900
C920        C  0.88640795  0.33127470  0.93025413    -0.23700
C921        C  0.89523459  0.34979401  0.93655478     0.26600
C922        C  0.88375264  0.36622942  0.93973421    -0.20500
C923        C  0.89172805  0.38274729  0.94851104    -0.10100
C924        C  0.91126968  0.38292299  0.95407077    -0.10700
C925        C  0.92300363  0.36712429  0.94916533    -0.03600
C926        C  0.91512356  0.35082463  0.94039691    -0.18700
H927        H  0.89393403  0.24822459  0.94583276     0.10400
H928        H  0.90079051  0.28118496  0.95615386     0.10400
H929        H  0.87030764  0.30311771  0.90580442     0.10100
H930        H  0.86324436  0.27030237  0.89566103     0.11200
H931        H  0.90361939  0.31487922  0.94917577     0.11300
H932        H  0.87432782  0.33172638  0.92020345     0.13200
H933        H  0.86844776  0.36586984  0.93649635     0.09700
H934        H  0.88241910  0.39480984  0.95203371     0.11800
H935        H  0.93822577  0.36705511  0.95284505     0.08400
H936        H  0.92451923  0.33872049  0.93726237     0.11200
C937        C  0.75594032  0.55248661  0.10569214    -0.03400
C938        C  0.77080992  0.55696640  0.11896099    -0.06000
C939        C  0.79010784  0.55301380  0.11443625    -0.21100
C940        C  0.79500253  0.54496919  0.09638780     0.24600
C941        C  0.78014312  0.54032685  0.08316181    -0.18700
C942        C  0.76082688  0.54398942  0.08779807    -0.08700
C943        C  0.81556006  0.54076126  0.09189188    -0.18900
C944        C  0.82257614  0.54256305  0.07370775    -0.23700
C945        C  0.84192555  0.53581970  0.06719588     0.26600
C946        C  0.84471875  0.53367571  0.04709829    -0.20500
C947        C  0.86136564  0.52501142  0.03991010    -0.10100
C948        C  0.87586113  0.51845314  0.05260973    -0.10700
C949        C  0.87393077  0.52190319  0.07267715    -0.03600
C950        C  0.85701170  0.53046318  0.07997352    -0.18700
H951        H  0.76752771  0.56339358  0.13294354     0.10400
H952        H  0.80126794  0.55647725  0.12494738     0.10400
H953        H  0.78339001  0.53354280  0.06935035     0.10100
H954        H  0.74974047  0.54031433  0.07728977     0.11200
H955        H  0.82474929  0.53593022  0.10373893     0.11300
H956        H  0.81299043  0.54813915  0.06247178     0.13200
H957        H  0.83352837  0.53785713  0.03687942     0.09700
H958        H  0.86255951  0.52272554  0.02433989     0.11800
H959        H  0.88493786  0.51699910  0.08275634     0.08400
H960        H  0.85567789  0.53233637  0.09554627     0.11200
C961        C  0.00587569  0.41557551  0.09277946    -0.03400
C962        C  0.00528760  0.39540586  0.09472783    -0.06000
C963        C  0.01248640  0.38657697  0.11161011    -0.21100
C964        C  0.02085494  0.39772599  0.12647103     0.24600
C965        C  0.02229054  0.41783318  0.12400869    -0.18700
C966        C  0.01474013  0.42666116  0.10738835    -0.08700
C967        C  0.02622030  0.38847802  0.14518365    -0.18900
C968        C  0.04076546  0.39501097  0.15635424    -0.23700
C969        C  0.04481855  0.38711120  0.17595183     0.26600
C970        C  0.06402070  0.38512797  0.18207692    -0.20500
C971        C  0.06822961  0.37865867  0.20089032    -0.10100
C972        C  0.05327981  0.37476136  0.21412889    -0.10700
C973        C  0.03402869  0.37693607  0.20809761    -0.03600
C974        C  0.02980896  0.38283989  0.18905582    -0.18700
H975        H  0.99825422  0.38661754  0.08376817     0.10400
H976        H  0.01109847  0.37107794  0.11329645     0.10400
H977        H  0.02825477  0.42688794  0.13537006     0.10100
H978        H  0.01522296  0.44226733  0.10624439     0.11200
H979        H  0.01795476  0.37597440  0.14991619     0.11300
H980        H  0.05030008  0.40622066  0.15083956     0.13200
H981        H  0.07577161  0.38856655  0.17226057     0.09700
H982        H  0.08319162  0.37723896  0.20528908     0.11800
H983        H  0.02228742  0.37401877  0.21809133     0.08400
H984        H  0.01486190  0.38466186  0.18477473     0.11200
C985        C  0.87465700  0.48508505  0.95695246    -0.03400
C986        C  0.86088389  0.49738643  0.96547122    -0.06000
C987        C  0.84675828  0.50635216  0.95414963    -0.21100
C988        C  0.84618305  0.50368033  0.93393974     0.24600
C989        C  0.86029372  0.49193959  0.92514077    -0.18700
C990        C  0.87435079  0.48260382  0.93659447    -0.08700
C991        C  0.82971322  0.51219393  0.92301404    -0.18900
C992        C  0.83057657  0.51834137  0.90441856    -0.23700
C993        C  0.81362350  0.52755395  0.89480155     0.26600
C994        C  0.81632242  0.54314921  0.88199793    -0.20500
C995        C  0.80040959  0.55263749  0.87367857    -0.10100
C996        C  0.78145938  0.54644815  0.87770782    -0.10700
C997        C  0.77887736  0.53036776  0.89000538    -0.03600
C998        C  0.79472929  0.52107411  0.89846427    -0.18700
H999        H  0.86060284  0.49968845  0.98107439     0.10400
H1000       H  0.83604553  0.51527904  0.96128142     0.10400
H1001       H  0.86003214  0.48938236  0.90958895     0.10100
H1002       H  0.88475694  0.47325023  0.92958566     0.11200
H1003       H  0.81649287  0.51460045  0.93117683     0.11300
H1004       H  0.84422594  0.51792119  0.89665290     0.13200
H1005       H  0.83074954  0.54831927  0.87883832     0.09700
H1006       H  0.80295915  0.56488763  0.86420080     0.11800
H1007       H  0.76455051  0.52506939  0.89337924     0.08400
H1008       H  0.79217123  0.50876498  0.90786017     0.11200
C1009       C  0.58215747  0.18865484  0.04228978    -0.03400
C1010       C  0.56388864  0.19227085  0.03414351    -0.06000
C1011       C  0.55355937  0.17755197  0.02500288    -0.21100
C1012       C  0.56134026  0.15893110  0.02342216     0.24600
C1013       C  0.57961955  0.15518239  0.03162341    -0.18700
C1014       C  0.58988915  0.16992737  0.04108968    -0.08700
C1015       C  0.54936144  0.14377544  0.01403061    -0.18900
C1016       C  0.55640235  0.12761310  0.00575189    -0.23700
C1017       C  0.54347836  0.11306904  0.99655197     0.26600
C1018       C  0.54998730  0.10222704  0.98057650    -0.20500
C1019       C  0.53768398  0.08898680  0.97132268    -0.10100
C1020       C  0.51868935  0.08623478  0.97803888    -0.10700
C1021       C  0.51248215  0.09665326  0.99444615    -0.03600
C1022       C  0.52471591  0.10981566  0.00362433    -0.18700
H1023       H  0.55746620  0.20651163  0.03495521     0.10400
H1024       H  0.53943334  0.18077705  0.01901663     0.10400
H1025       H  0.58584875  0.14086671  0.03108772     0.10100
H1026       H  0.60395865  0.16676281  0.04721632     0.11200
H1027       H  0.53396006  0.14660917  0.01311610     0.11300
H1028       H  0.57189378  0.12546022  0.00474039     0.13200
H1029       H  0.56446863  0.10430190  0.97500639     0.09700
H1030       H  0.54296258  0.08109186  0.95880876     0.11800
H1031       H  0.49807410  0.09469834  0.00024191     0.08400
H1032       H  0.51944471  0.11732650  0.01636824     0.11200
C1033       C  0.37583686  0.33462339  0.71554566    -0.03400
C1034       C  0.37438976  0.31847921  0.72786956    -0.06000
C1035       C  0.35830289  0.30627312  0.72690232    -0.21100
C1036       C  0.34299148  0.31035628  0.71413943     0.24600
C1037       C  0.34446740  0.32643535  0.70165545    -0.18700
C1038       C  0.36089287  0.33832131  0.70218438    -0.08700
C1039       C  0.32573948  0.29756071  0.71420768    -0.18900
C1040       C  0.30758729  0.30444864  0.71306619    -0.23700
C1041       C  0.29032407  0.29192565  0.71569325     0.26600
C1042       C  0.27446483  0.29898543  0.72620306    -0.20500
C1043       C  0.25816195  0.28741242  0.72932227    -0.10100
C1044       C  0.25713143  0.26868960  0.72148413    -0.10700
C1045       C  0.27286069  0.26178324  0.71054553    -0.03600
C1046       C  0.28935903  0.27320859  0.70782315    -0.18700
H1047       H  0.38573900  0.31531595  0.73827127     0.10400
H1048       H  0.35754630  0.29390990  0.73656711     0.10400
H1049       H  0.33299280  0.32974131  0.69145252     0.10100
H1050       H  0.36164676  0.35075136  0.69261367     0.11200
H1051       H  0.32795191  0.28232699  0.71733893     0.11300
H1052       H  0.30533960  0.31995827  0.71210930     0.13200
H1053       H  0.27483960  0.31340100  0.73231903     0.09700
H1054       H  0.24625454  0.29322305  0.73766929     0.11800
H1055       H  0.27251279  0.24744507  0.70425909     0.08400
H1056       H  0.30123872  0.26750930  0.69935927     0.11200
C1057       C  0.48497397  0.45255189  0.58763999    -0.03400
C1058       C  0.47045841  0.46072560  0.59939232    -0.06000
C1059       C  0.46191310  0.45019088  0.61442731    -0.21100
C1060       C  0.46724395  0.43100498  0.61806565     0.24600
C1061       C  0.48133217  0.42243454  0.60604122    -0.18700
C1062       C  0.49019015  0.43315978  0.59101875    -0.08700
C1063       C  0.45858728  0.42118189  0.63534069    -0.18900
C1064       C  0.45580423  0.40196633  0.63701102    -0.23700
C1065       C  0.44603195  0.39323530  0.65432244     0.26600
C1066       C  0.43437395  0.37676535  0.65202716    -0.20500
C1067       C  0.42452853  0.36871944  0.66797828    -0.10100
C1068       C  0.42646668  0.37674044  0.68670142    -0.10700
C1069       C  0.43861779  0.39289930  0.68905334    -0.03600
C1070       C  0.44821172  0.40106647  0.67310363    -0.18700
H1071       H  0.46596999  0.47558046  0.59737117     0.10400
H1072       H  0.45115625  0.45719202  0.62343517     0.10400
H1073       H  0.48600737  0.40774048  0.60865111     0.10100
H1074       H  0.50135033  0.42642299  0.58234097     0.11200
H1075       H  0.45308306  0.43050820  0.64677673     0.11300
H1076       H  0.45947113  0.39259498  0.62489584     0.13200
H1077       H  0.43259042  0.37031760  0.63776396     0.09700
H1078       H  0.41549617  0.35615789  0.66566398     0.11800
H1079       H  0.44063196  0.39940393  0.70325285     0.08400
H1080       H  0.45750313  0.41340757  0.67556673     0.11200
C1081       C  0.68613792  0.54325892  0.09395210    -0.03400
C1082       C  0.66709622  0.54337695  0.10108661    -0.06000
C1083       C  0.65221724  0.53422795  0.09073580    -0.21100
C1084       C  0.65597036  0.52521483  0.07284024     0.24600
C1085       C  0.67500308  0.52496745  0.06575823    -0.18700
C1086       C  0.68991453  0.53379051  0.07623904    -0.08700
C1087       C  0.63995816  0.51597172  0.06182002    -0.18900
C1088       C  0.63890032  0.51706146  0.04227399    -0.23700
C1089       C  0.62306590  0.50844866  0.03055640     0.26600
C1090       C  0.61752531  0.51772934  0.01328692    -0.20500
C1091       C  0.60366715  0.50952895  0.00104597    -0.10100
C1092       C  0.59528457  0.49155587  0.00553873    -0.10700
C1093       C  0.60073280  0.48224541  0.02294145    -0.03600
C1094       C  0.61441375  0.49069003  0.03543199    -0.18700
H1095       H  0.66371447  0.55038638  0.11475483     0.10400
H1096       H  0.63768243  0.53447478  0.09654167     0.10400
H1097       H  0.67841878  0.51774325  0.05221483     0.10100
H1098       H  0.70440341  0.53332188  0.07034331     0.11200
H1099       H  0.62829393  0.50925116  0.06994630     0.11300
H1100       H  0.64959785  0.52558769  0.03450020     0.13200
H1101       H  0.62405379  0.53136277  0.00917776     0.09700
H1102       H  0.59989144  0.51709584  0.98775647     0.11800
H1103       H  0.59455654  0.46839088  0.02680998     0.08400
H1104       H  0.61867954  0.48303250  0.04850697     0.11200
C1105       C  0.71072403  0.55179298  0.86942531    -0.03400
C1106       C  0.70722910  0.53208838  0.87286777    -0.06000
C1107       C  0.68833663  0.52540130  0.87573302    -0.21100
C1108       C  0.67273001  0.53834826  0.87569198     0.24600
C1109       C  0.67622522  0.55800109  0.87205908    -0.18700
C1110       C  0.69498398  0.56462017  0.86890581    -0.08700
C1111       C  0.65293563  0.53114145  0.87953733    -0.18900
C1112       C  0.63997859  0.54161922  0.88958191    -0.23700
C1113       C  0.62089080  0.53389391  0.89522800     0.26600
C1114       C  0.61395190  0.53766598  0.91399960    -0.20500
C1115       C  0.59657086  0.52957811  0.92026663    -0.10100
C1116       C  0.58549990  0.51806461  0.90763248    -0.10700
C1117       C  0.59193429  0.51513691  0.88846056    -0.03600
C1118       C  0.60962258  0.52283200  0.88234961    -0.18700
H1119       H  0.71904543  0.52185355  0.87315616     0.10400
H1120       H  0.68593311  0.51015549  0.87836289     0.10400
H1121       H  0.66444924  0.56826622  0.87145983     0.10100
H1122       H  0.69715850  0.57988926  0.86623244     0.11200
H1123       H  0.64946863  0.51637479  0.87545622     0.11300
H1124       H  0.64419659  0.55551326  0.89558545     0.13200
H1125       H  0.62236975  0.54628731  0.92408065     0.09700
H1126       H  0.59194137  0.53203896  0.93512472     0.11800
H1127       H  0.58372799  0.50619476  0.87849879     0.08400
H1128       H  0.61454870  0.52005136  0.86765443     0.11200
C1129       C  0.46935743  0.37628083  0.98713048    -0.03400
C1130       C  0.47748316  0.36350313  0.00077983    -0.06000
C1131       C  0.46637462  0.34894010  0.00921595    -0.21100
C1132       C  0.44673813  0.34706012  0.00465341     0.24600
C1133       C  0.43840961  0.35994477  0.99114288    -0.18700
C1134       C  0.44971994  0.37434059  0.98228030    -0.08700
C1135       C  0.43594881  0.33067815  0.01338244    -0.18900
C1136       C  0.41695588  0.33099938  0.01755939    -0.23700
C1137       C  0.40716775  0.31414909  0.02673676     0.26600
C1138       C  0.39199487  0.31703992  0.03997656    -0.20500
C1139       C  0.38307416  0.30126007  0.04916506    -0.10100
C1140       C  0.38894318  0.28225768  0.04497181    -0.10700
C1141       C  0.40381317  0.27945302  0.03131463    -0.03600
C1142       C  0.41279092  0.29515264  0.02233003    -0.18700
H1143       H  0.49262147  0.36451835  0.00466385     0.10400
H1144       H  0.47316902  0.33908671  0.01941058     0.10400
H1145       H  0.42337422  0.35858056  0.98703721     0.10100
H1146       H  0.44313048  0.38400338  0.97178258     0.11200
H1147       H  0.44440033  0.31813395  0.01763688     0.11300
H1148       H  0.40872030  0.34416462  0.01528639     0.13200
H1149       H  0.38728480  0.33154218  0.04347680     0.09700
H1150       H  0.37157714  0.30393825  0.05948615     0.11800
H1151       H  0.40867522  0.26506354  0.02758378     0.08400
H1152       H  0.42402773  0.29234916  0.01175972     0.11200
C1153       C  0.59437747  0.25818685  0.04693194    -0.03400
C1154       C  0.57905453  0.26135200  0.03386385    -0.06000
C1155       C  0.57409084  0.28001719  0.02811935    -0.21100
C1156       C  0.58432456  0.29605537  0.03514597     0.24600
C1157       C  0.59970912  0.29299023  0.04823826    -0.18700
C1158       C  0.60468514  0.27422031  0.05404108    -0.08700
C1159       C  0.57772416  0.31554947  0.02896860    -0.18900
C1160       C  0.58778541  0.33205748  0.03134077    -0.23700
C1161       C  0.58004611  0.35103190  0.02482559     0.26600
C1162       C  0.59281332  0.36575207  0.01910184    -0.20500
C1163       C  0.58573761  0.38334862  0.01190415    -0.10100
C1164       C  0.56573567  0.38653297  0.01044307    -0.10700
C1165       C  0.55303241  0.37208785  0.01700921    -0.03600
C1166       C  0.56007353  0.35464228  0.02423177    -0.18700
H1167       H  0.57069303  0.24940575  0.02814657     0.10400
H1168       H  0.56209106  0.28192233  0.01815041     0.10400
H1169       H  0.60770716  0.30494329  0.05436253     0.10100
H1170       H  0.61649988  0.27229689  0.06421091     0.11200
H1171       H  0.56394562  0.31614168  0.02141581     0.11300
H1172       H  0.60233386  0.33169427  0.03719742     0.13200
H1173       H  0.60827295  0.36341663  0.01967061     0.09700
H1174       H  0.59588754  0.39418951  0.00694501     0.11800
H1175       H  0.53753765  0.37413399  0.01633441     0.08400
H1176       H  0.54976772  0.34402978  0.02932510     0.11200
C1177       C  0.41430875  0.57334136  0.77334393    -0.03400
C1178       C  0.42280464  0.55546042  0.76882044    -0.06000
C1179       C  0.43216848  0.54458263  0.78317643    -0.21100
C1180       C  0.43377206  0.55147653  0.80232002     0.24600
C1181       C  0.42538947  0.56941772  0.80694490    -0.18700
C1182       C  0.41560459  0.58016585  0.79261395    -0.08700
C1183       C  0.44331821  0.53899941  0.81717350    -0.18900
C1184       C  0.45337260  0.54577788  0.83257692    -0.23700
C1185       C  0.46300574  0.53269506  0.84690613     0.26600
C1186       C  0.48017289  0.53850103  0.85619195    -0.20500
C1187       C  0.48948029  0.52629244  0.86962544    -0.10100
C1188       C  0.48152594  0.50819106  0.87437505    -0.10700
C1189       C  0.46414663  0.50260954  0.86530853    -0.03600
C1190       C  0.45504253  0.51464334  0.85175692    -0.18700
H1191       H  0.42199558  0.54970559  0.75417674     0.10400
H1192       H  0.43832151  0.53073691  0.77926539     0.10400
H1193       H  0.42601000  0.57494257  0.82167668     0.10100
H1194       H  0.40923670  0.59389543  0.79655529     0.11200
H1195       H  0.44298052  0.52352412  0.81458636     0.11300
H1196       H  0.45546783  0.56124658  0.83416872     0.13200
H1197       H  0.48652742  0.55241368  0.85284538     0.09700
H1198       H  0.50277699  0.53107672  0.87639996     0.11800
H1199       H  0.45755581  0.48879555  0.86859665     0.08400
H1200       H  0.44157485  0.50988233  0.84533736     0.11200
C1201       C  0.45760676  0.41019096  0.88396728    -0.03400
C1202       C  0.45489765  0.39015966  0.88194652    -0.06000
C1203       C  0.44638771  0.38259075  0.86508151    -0.21100
C1204       C  0.44056512  0.39485667  0.84987132     0.24600
C1205       C  0.44242587  0.41494810  0.85231526    -0.18700
C1206       C  0.45094298  0.42249947  0.86910454    -0.08700
C1207       C  0.43299506  0.38636083  0.83149243    -0.18900
C1208       C  0.43554190  0.39504671  0.81411662    -0.23700
C1209       C  0.42959573  0.38670674  0.79509906     0.26600
C1210       C  0.43876655  0.39351386  0.77825287    -0.20500
C1211       C  0.43351236  0.38664661  0.75990235    -0.10100
C1212       C  0.41873396  0.37285612  0.75785992    -0.10700
C1213       C  0.40946517  0.36599066  0.77474732    -0.03600
C1214       C  0.41481582  0.37284085  0.79321375    -0.18700
H1215       H  0.45984166  0.38028012  0.89314492     0.10400
H1216       H  0.44491896  0.36708510  0.86364067     0.10400
H1217       H  0.43740594  0.42490407  0.84125539     0.10100
H1218       H  0.45256272  0.43802000  0.87028775     0.11200
H1219       H  0.42666507  0.37201723  0.83216036     0.11300
H1220       H  0.44359951  0.40851676  0.81354197     0.13200
H1221       H  0.45012934  0.40425282  0.77927124     0.09700
H1222       H  0.44096115  0.39233130  0.74729678     0.11800
H1223       H  0.39791018  0.35546834  0.77371637     0.08400
H1224       H  0.40710342  0.36759334  0.80581042     0.11200
C1225       C  0.28055500  0.04919459  0.37450368    -0.03400
C1226       C  0.27779900  0.03084564  0.38292360    -0.06000
C1227       C  0.29344853  0.02014131  0.38990173    -0.21100
C1228       C  0.31227457  0.02752822  0.38894813     0.24600
C1229       C  0.31523611  0.04554025  0.37980707    -0.18700
C1230       C  0.29952309  0.05624333  0.37264933    -0.08700
C1231       C  0.32812354  0.01625905  0.39833472    -0.18900
C1232       C  0.34403743  0.02455080  0.40596909    -0.23700
C1233       C  0.35807198  0.01427858  0.41885443     0.26600
C1234       C  0.36930952  0.02541340  0.43161448    -0.20500
C1235       C  0.38175226  0.01665381  0.44498392    -0.10100
C1236       C  0.38353041  0.99642358  0.44585703    -0.10700
C1237       C  0.37286975  0.98519753  0.43257816    -0.03600
C1238       C  0.36023954  0.99401341  0.41921084    -0.18700
H1239       H  0.26346262  0.02477436  0.38439175     0.10400
H1240       H  0.29073300  0.00625298  0.39666656     0.10400
H1241       H  0.32960958  0.05145731  0.37822604     0.10100
H1242       H  0.30220619  0.07019660  0.36603465     0.11200
H1243       H  0.32539582  0.00106542  0.40106400     0.11300
H1244       H  0.34583484  0.04006467  0.40455674     0.13200
H1245       H  0.36810258  0.04102234  0.43160877     0.09700
H1246       H  0.38985975  0.02581226  0.45481542     0.11800
H1247       H  0.37401125  0.96959556  0.43275748     0.08400
H1248       H  0.35226138  0.98490339  0.40926473     0.11200
C1249       C  0.95182434  0.93048380  0.38373158    -0.03400
C1250       C  0.94544796  0.94309272  0.36903646    -0.06000
C1251       C  0.93794874  0.93594171  0.35167115    -0.21100
C1252       C  0.93670008  0.91599409  0.34842527     0.24600
C1253       C  0.94183346  0.90328171  0.36369286    -0.18700
C1254       C  0.94927818  0.91052496  0.38126950    -0.08700
C1255       C  0.93122469  0.90959439  0.32847101    -0.18900
C1256       C  0.93050528  0.89115589  0.32236111    -0.23700
C1257       C  0.92619593  0.88625341  0.30176877     0.26600
C1258       C  0.91544426  0.86962325  0.29761624    -0.20500
C1259       C  0.91062974  0.86502328  0.27839386    -0.10100
C1260       C  0.91683094  0.87677427  0.26285652    -0.10700
C1261       C  0.92824137  0.89305218  0.26697915    -0.03600
C1262       C  0.93284893  0.89777651  0.28624165    -0.18700
H1263       H  0.94711123  0.95858177  0.37061021     0.10400
H1264       H  0.93393071  0.94610842  0.34035558     0.10400
H1265       H  0.94090334  0.88779681  0.36200580     0.10100
H1266       H  0.95418098  0.90052385  0.39236508     0.11200
H1267       H  0.92802152  0.92091333  0.31796037     0.11300
H1268       H  0.93242170  0.87931147  0.33251452     0.13200
H1269       H  0.91038070  0.86040969  0.30931647     0.09700
H1270       H  0.90196819  0.85226784  0.27572493     0.11800
H1271       H  0.93334369  0.90233258  0.25535976     0.08400
H1272       H  0.94171791  0.91037527  0.28894285     0.11200
C1273       C  0.08862037  0.76557982  0.56052992    -0.03400
C1274       C  0.08824172  0.77892313  0.57592865    -0.06000
C1275       C  0.08350359  0.79826002  0.57244150    -0.21100
C1276       C  0.07981202  0.80471481  0.55343361     0.24600
C1277       C  0.08069845  0.79147522  0.53794238    -0.18700
C1278       C  0.08482273  0.77200707  0.54150763    -0.08700
C1279       C  0.07339893  0.82484814  0.55017258    -0.18900
C1280       C  0.07938774  0.83536138  0.53485206    -0.23700
C1281       C  0.07086423  0.85436805  0.52985317     0.26600
C1282       C  0.08230164  0.86855846  0.52085922    -0.20500
C1283       C  0.07392207  0.88558237  0.51371493    -0.10100
C1284       C  0.05388181  0.88831402  0.51491644    -0.10700
C1285       C  0.04253767  0.87437329  0.52440206    -0.03600
C1286       C  0.05095614  0.85765370  0.53198610    -0.18700
H1287       H  0.09097499  0.77425329  0.59074530     0.10400
H1288       H  0.08266589  0.80819444  0.58459244     0.10400
H1289       H  0.07750560  0.79604083  0.52318894     0.10100
H1290       H  0.08503449  0.76196243  0.52942212     0.11200
H1291       H  0.06350096  0.83114916  0.56066228     0.11300
H1292       H  0.09067399  0.82971211  0.52546171     0.13200
H1293       H  0.09764268  0.86621742  0.51890271     0.09700
H1294       H  0.08288498  0.89601259  0.50618821     0.11800
H1295       H  0.02701671  0.87612041  0.52533402     0.08400
H1296       H  0.04169551  0.84680566  0.53846142     0.11200
C1297       C  0.09024547  0.99052967  0.51597049    -0.03400
C1298       C  0.09468340  0.00994064  0.51190314    -0.06000
C1299       C  0.10775772  0.02012880  0.52347638    -0.21100
C1300       C  0.11708840  0.01112806  0.53918139     0.24600
C1301       C  0.11255875  0.99173962  0.54350014    -0.18700
C1302       C  0.09912939  0.98157425  0.53205473    -0.08700
C1303       C  0.13127648  0.02263642  0.55061505    -0.18900
C1304       C  0.14681633  0.01497861  0.55956528    -0.23700
C1305       C  0.16234200  0.02721271  0.56814176     0.26600
C1306       C  0.18151982  0.02081301  0.56714890    -0.20500
C1307       C  0.19667064  0.03265132  0.57343198    -0.10100
C1308       C  0.19298175  0.05110360  0.58118838    -0.10700
C1309       C  0.17367357  0.05708966  0.58316099    -0.03600
C1310       C  0.15851235  0.04530071  0.57666351    -0.18700
H1311       H  0.08799686  0.01732604  0.49971713     0.10400
H1312       H  0.11087615  0.03505881  0.51989569     0.10400
H1313       H  0.11920199  0.98448488  0.55576743     0.10100
H1314       H  0.09597786  0.96664233  0.53554717     0.11200
H1315       H  0.12991344  0.03825411  0.54989544     0.11300
H1316       H  0.14934909  0.99952535  0.55865180     0.13200
H1317       H  0.18485594  0.00687577  0.56082787     0.09700
H1318       H  0.21132788  0.02744446  0.57186408     0.11800
H1319       H  0.17027495  0.07111579  0.58921666     0.08400
H1320       H  0.14383233  0.05043520  0.57817962     0.11200
C1321       C  0.21006998  0.05891894  0.37437151    -0.03400
C1322       C  0.20776455  0.04263090  0.38636293    -0.06000
C1323       C  0.18945839  0.03708803  0.39278662    -0.21100
C1324       C  0.17294014  0.04758518  0.38737354     0.24600
C1325       C  0.17513687  0.06376068  0.37514632    -0.18700
C1326       C  0.19350914  0.06933429  0.36870913    -0.08700
C1327       C  0.15411656  0.04172138  0.39595322    -0.18900
C1328       C  0.13659641  0.04832808  0.39044715    -0.23700
C1329       C  0.11881551  0.04210892  0.40082952     0.26600
C1330       C  0.10143151  0.03932375  0.39060073    -0.20500
C1331       C  0.08529892  0.03131120  0.40001358    -0.10100
C1332       C  0.08640892  0.02609989  0.41979353    -0.10700
C1333       C  0.10330364  0.03039052  0.43026361    -0.03600
C1334       C  0.11924620  0.03839914  0.42095214    -0.18700
H1335       H  0.22014206  0.03425881  0.39105475     0.10400
H1336       H  0.18823902  0.02463152  0.40227247     0.10400
H1337       H  0.16287709  0.07247032  0.37089040     0.10100
H1338       H  0.19474215  0.08198595  0.35950526     0.11200
H1339       H  0.15479749  0.03103628  0.40755217     0.11300
H1340       H  0.13505571  0.05760384  0.37779152     0.13200
H1341       H  0.10064037  0.04245107  0.37515322     0.09700
H1342       H  0.07240623  0.02823106  0.39162140     0.11800
H1343       H  0.10444344  0.02694984  0.44562723     0.08400
H1344       H  0.13208215  0.04127086  0.42948884     0.11200
C1345       C  0.95593355  0.88883591  0.48535895    -0.03400
C1346       C  0.96167318  0.88170542  0.50368044    -0.06000
C1347       C  0.95030814  0.86828910  0.51366249    -0.21100
C1348       C  0.93311339  0.86132283  0.50547172     0.07800
C1349       C  0.92710664  0.86863377  0.48727892    -0.18700
C1350       C  0.93836943  0.88235962  0.47737678    -0.08700
C1351       C  0.92183954  0.84662873  0.51648838    -0.18900
C1352       C  0.91125948  0.83272881  0.50784139    -0.23700
C1353       C  0.90179881  0.81681918  0.51891708     0.26600
C1354       C  0.89973844  0.79870294  0.51003001    -0.20500
C1355       C  0.89146338  0.78321604  0.52012939    -0.10100
C1356       C  0.88468380  0.78555518  0.53930148    -0.10700
C1357       C  0.88623033  0.80387248  0.54802765    -0.03600
C1358       C  0.89476254  0.81932324  0.53798634    -0.18700
H1359       H  0.97503033  0.88648460  0.51034550     0.10400
H1360       H  0.95518732  0.86302516  0.52771260     0.10400
H1361       H  0.91367032  0.86390401  0.48077209     0.10100
H1362       H  0.93351600  0.88762917  0.46333464     0.11200
H1363       H  0.92378923  0.84620670  0.53219102     0.11300
H1364       H  0.91091553  0.83195379  0.49203666     0.13200
H1365       H  0.90489156  0.79641728  0.49531046     0.09700
H1366       H  0.89036007  0.76938441  0.51286265     0.11800
H1367       H  0.88106286  0.80622779  0.56271772     0.08400
H1368       H  0.89565698  0.83323390  0.54510672     0.11200
C1369       C  0.97666596  0.51442100  0.09271507    -0.03400
C1370       C  0.96777237  0.53134905  0.09951461    -0.06000
C1371       C  0.97693026  0.54297382  0.11343473    -0.21100
C1372       C  0.99535511  0.53822674  0.12057259     0.24600
C1373       C  0.00446798  0.52149669  0.11347595    -0.18700
C1374       C  0.99517998  0.50969751  0.09977528    -0.08700
C1375       C  0.00393073  0.55023634  0.13638725    -0.18900
C1376       C  0.02308250  0.55186791  0.13969460    -0.23700
C1377       C  0.03126171  0.56323217  0.15621543     0.26600
C1378       C  0.04980619  0.57132983  0.15456926    -0.20500
C1379       C  0.05818145  0.58135149  0.17021389    -0.10100
C1380       C  0.04831814  0.58315689  0.18801863    -0.10700
C1381       C  0.02972871  0.57505143  0.18960268    -0.03600
C1382       C  0.02130982  0.56524090  0.17393881    -0.18700
H1383       H  0.95348001  0.53532533  0.09449918     0.10400
H1384       H  0.96951119  0.55567459  0.11877830     0.10400
H1385       H  0.01845237  0.51710138  0.11895854     0.10100
H1386       H  0.00242297  0.49672782  0.09486589     0.11200
H1387       H  0.99398684  0.55850940  0.14529642     0.11300
H1388       H  0.03317691  0.54517438  0.12968065     0.13200
H1389       H  0.05785495  0.56986401  0.14113383     0.09700
H1390       H  0.07252849  0.58733051  0.16848213     0.11800
H1391       H  0.02167427  0.57609803  0.20306991     0.08400
H1392       H  0.00723275  0.55876328  0.17598229     0.11200
C1393       C  0.59210600  0.48893081  0.45597540    -0.03400
C1394       C  0.59992660  0.49856801  0.43977327    -0.06000
C1395       C  0.61388353  0.48959556  0.42811920    -0.21100
C1396       C  0.62001153  0.47064719  0.43209090     0.24600
C1397       C  0.61199158  0.46088169  0.44814154    -0.18700
C1398       C  0.59827729  0.46996297  0.45998567    -0.08700
C1399       C  0.63577630  0.46208829  0.42014585    -0.18900
C1400       C  0.63815202  0.44292053  0.41747154    -0.23700
C1401       C  0.65486257  0.43458316  0.40670564     0.26600
C1402       C  0.65296363  0.41659679  0.39740442    -0.20500
C1403       C  0.66883588  0.40790635  0.38821773    -0.10100
C1404       C  0.68705963  0.41687537  0.38850294    -0.10700
C1405       C  0.68885168  0.43496537  0.39768918    -0.03600
C1406       C  0.67300159  0.44369902  0.40665597    -0.18700
H1407       H  0.59559502  0.51321951  0.43636681     0.10400
H1408       H  0.61998688  0.49752113  0.41598325     0.10400
H1409       H  0.61671686  0.44647096  0.45197523     0.10100
H1410       H  0.59256335  0.46214176  0.47237834     0.11200
H1411       H  0.64554055  0.47206871  0.41294220     0.11300
H1412       H  0.62735370  0.43296422  0.42301162     0.13200
H1413       H  0.63918487  0.40918736  0.39737238     0.09700
H1414       H  0.66694864  0.39394584  0.38137773     0.11800
H1415       H  0.70264378  0.44232289  0.39825937     0.08400
H1416       H  0.67520040  0.45728442  0.41411541     0.11200
C1417       C  0.00439682  0.59555006  0.48924523    -0.03400
C1418       C  0.02163461  0.60025322  0.47952412    -0.06000
C1419       C  0.03434053  0.61398488  0.48736568    -0.21100
C1420       C  0.02984669  0.62357684  0.50479224     0.24600
C1421       C  0.01266893  0.61880227  0.51454699    -0.18700
C1422       C  0.00013804  0.60494055  0.50689088    -0.08700
C1423       C  0.04343554  0.63813776  0.51285975    -0.18900
C1424       C  0.03722376  0.65383406  0.52257054    -0.23700
C1425       C  0.05033650  0.66859318  0.53098924     0.26600
C1426       C  0.04384948  0.68772742  0.53235107    -0.20500
C1427       C  0.05535464  0.70189652  0.54104235    -0.10100
C1428       C  0.07342546  0.69712264  0.54904980    -0.10700
C1429       C  0.07992068  0.67792339  0.54778742    -0.03600
C1430       C  0.06854853  0.66379995  0.53870863    -0.18700
H1431       H  0.02537867  0.59320974  0.46596869     0.10400
H1432       H  0.04758642  0.61731352  0.47968653     0.10400
H1433       H  0.00902394  0.62554042  0.52828069     0.10100
H1434       H  0.98701878  0.60165169  0.51480179     0.11200
H1435       H  0.05874344  0.63638158  0.50992333     0.11300
H1436       H  0.02180187  0.65651063  0.52366132     0.13200
H1437       H  0.02979934  0.69172317  0.52667304     0.09700
H1438       H  0.04986936  0.71651695  0.54192012     0.11800
H1439       H  0.09377693  0.67382145  0.55384264     0.08400
H1440       H  0.07376575  0.64907180  0.53826942     0.11200
C1441       C  0.90840968  0.58571925  0.51771211    -0.03400
C1442       C  0.88895485  0.58747944  0.52329623    -0.06000
C1443       C  0.88179674  0.60518849  0.53014059    -0.21100
C1444       C  0.89385177  0.62149466  0.53123529     0.24600
C1445       C  0.91349944  0.61942579  0.52662005    -0.18700
C1446       C  0.92064732  0.60182099  0.51991387    -0.08700
C1447       C  0.88572625  0.64051415  0.53712987    -0.18900
C1448       C  0.89288503  0.65734489  0.53026210    -0.23700
C1449       C  0.88576350  0.67690687  0.53568980     0.26600
C1450       C  0.89177872  0.69278426  0.52444301    -0.20500
C1451       C  0.88669917  0.71162892  0.52964382    -0.10100
C1452       C  0.87552002  0.71508599  0.54632735    -0.10700
C1453       C  0.86910111  0.69916258  0.55736163    -0.03600
C1454       C  0.87421130  0.68030636  0.55217018    -0.18700
H1455       H  0.87917040  0.57535697  0.52190091     0.10400
H1456       H  0.86666755  0.60632796  0.53395333     0.10400
H1457       H  0.92342466  0.63141725  0.52808280     0.10100
H1458       H  0.93577570  0.60100750  0.51602099     0.11200
H1459       H  0.87305526  0.64046098  0.54638696     0.11300
H1460       H  0.90443730  0.65685302  0.51959707     0.13200
H1461       H  0.90072456  0.69062607  0.51170141     0.09700
H1462       H  0.89188660  0.72350247  0.52078593     0.11800
H1463       H  0.86051365  0.70125848  0.57035442     0.08400
H1464       H  0.86955133  0.66860133  0.56149175     0.11200
C1465       C  0.98749190  0.46281477  0.37941929    -0.03400
C1466       C  0.00456560  0.46842088  0.36984213    -0.06000
C1467       C  0.01236041  0.45713439  0.35496245    -0.21100
C1468       C  0.00363518  0.43969336  0.34951379     0.24600
C1469       C  0.98676618  0.43374004  0.35924906    -0.18700
C1470       C  0.97868300  0.44528558  0.37398055    -0.08700
C1471       C  0.01196056  0.42884048  0.33284621    -0.18900
C1472       C  0.01236916  0.40941812  0.33165696    -0.23700
C1473       C  0.02208256  0.39931711  0.31521150     0.26600
C1474       C  0.03244364  0.38218814  0.31862758    -0.20500
C1475       C  0.04246309  0.37303316  0.30344133    -0.10100
C1476       C  0.04185772  0.38057698  0.28441851    -0.10700
C1477       C  0.03089833  0.39737105  0.28095383    -0.03600
C1478       C  0.02122922  0.40666685  0.29614017    -0.18700
H1479       H  0.01172506  0.48185246  0.37349456     0.10400
H1480       H  0.02529039  0.46209154  0.34761804     0.10400
H1481       H  0.97951914  0.42051217  0.35508565     0.10100
H1482       H  0.96548029  0.44059249  0.38097314     0.11200
H1483       H  0.01938570  0.43726002  0.32176764     0.11300
H1484       H  0.00681679  0.40080818  0.34365413     0.13200
H1485       H  0.03317602  0.37615204  0.33317844     0.09700
H1486       H  0.05062371  0.36005287  0.30656613     0.11800
H1487       H  0.03003499  0.40359864  0.26649542     0.08400
H1488       H  0.01299421  0.41957401  0.29290939     0.11200
C1489       C  0.00992593  0.56138093  0.38607771    -0.03400
C1490       C  0.01500287  0.58103600  0.38492054    -0.06000
C1491       C  0.02260277  0.58873942  0.36765291    -0.21100
C1492       C  0.02499833  0.57704503  0.35113513     0.24600
C1493       C  0.02062396  0.55725120  0.35254743    -0.18700
C1494       C  0.01315884  0.54954189  0.36977167    -0.08700
C1495       C  0.03228091  0.58566153  0.33267139    -0.18900
C1496       C  0.02692078  0.57881290  0.31508373    -0.23700
C1497       C  0.03421213  0.58599545  0.29599350     0.26600
C1498       C  0.02468354  0.57987174  0.27902093    -0.20500
C1499       C  0.03181107  0.58462309  0.26060491    -0.10100
C1500       C  0.04876501  0.59561608  0.25863654    -0.10700
C1501       C  0.05804439  0.60227334  0.27561625    -0.03600
C1502       C  0.05089964  0.59748256  0.29410433    -0.18700
H1503       H  0.01280547  0.59054100  0.39723593     0.10400
H1504       H  0.02614493  0.60396795  0.36703251     0.10400
H1505       H  0.02300282  0.54762768  0.34037386     0.10100
H1506       H  0.00961409  0.53430736  0.37016652     0.11200
H1507       H  0.04148926  0.59828799  0.33371795     0.11300
H1508       H  0.01629387  0.56728352  0.31452587     0.13200
H1509       H  0.01182302  0.57100354  0.27999234     0.09700
H1510       H  0.02421115  0.57928822  0.24790436     0.11800
H1511       H  0.07116230  0.61074017  0.27466106     0.08400
H1512       H  0.05890073  0.60226604  0.30673889     0.11200
C1513       C  0.87956951  0.47829024  0.51498259    -0.03400
C1514       C  0.87666748  0.45820684  0.51363758    -0.06000
C1515       C  0.86371296  0.44873712  0.52592878    -0.21100
C1516       C  0.85317145  0.45895042  0.53997484     0.24600
C1517       C  0.85627722  0.47905652  0.54164647    -0.18700
C1518       C  0.86932506  0.48859484  0.52925074    -0.08700
C1519       C  0.83909434  0.44783023  0.55212225    -0.18900
C1520       C  0.82623958  0.45573415  0.56450275    -0.23700
C1521       C  0.81106006  0.44428117  0.57471877     0.26600
C1522       C  0.79379194  0.45356455  0.57976808    -0.20500
C1523       C  0.77859342  0.44324984  0.58818403    -0.10100
C1524       C  0.78036309  0.42337872  0.59209588    -0.10700
C1525       C  0.79799466  0.41420725  0.58795695    -0.03600
C1526       C  0.81319162  0.42452853  0.57930172    -0.18700
H1527       H  0.88429173  0.44969752  0.50289074     0.10400
H1528       H  0.86176999  0.43329532  0.52425717     0.10400
H1529       H  0.84876247  0.48758997  0.55237761     0.10100
H1530       H  0.87122037  0.50405534  0.53070030     0.11200
H1531       H  0.83863198  0.43232743  0.54982638     0.11300
H1532       H  0.82558452  0.47127590  0.56612296     0.13200
H1533       H  0.79181427  0.46878075  0.57664509     0.09700
H1534       H  0.76529977  0.45084000  0.59137457     0.11800
H1535       H  0.79985607  0.39894450  0.59087716     0.08400
H1536       H  0.82651458  0.41698298  0.57622276     0.11200
C1537       C  0.88464926  0.45294150  0.41790706    -0.03400
C1538       C  0.88228034  0.44783373  0.39824380    -0.06000
C1539       C  0.86475282  0.44011992  0.39161873    -0.21100
C1540       C  0.84915031  0.43748611  0.40442608     0.24600
C1541       C  0.85176397  0.44195825  0.42424958    -0.18700
C1542       C  0.86924992  0.44964088  0.43086583    -0.08700
C1543       C  0.83054483  0.42984662  0.39662432    -0.18900
C1544       C  0.81336411  0.43262940  0.40544588    -0.23700
C1545       C  0.79451393  0.42557785  0.39769686     0.26600
C1546       C  0.77748136  0.43380236  0.40500264    -0.20500
C1547       C  0.75939034  0.42745526  0.39860864    -0.10100
C1548       C  0.75783324  0.41252480  0.38482587    -0.10700
C1549       C  0.77487497  0.40422507  0.37749525    -0.03600
C1550       C  0.79301630  0.41062681  0.38386486    -0.18700
H1551       H  0.89381428  0.45019138  0.38786322     0.10400
H1552       H  0.86323534  0.43659176  0.37633206     0.10400
H1553       H  0.84043172  0.43949518  0.43479203     0.10100
H1554       H  0.87056272  0.45329325  0.44614579     0.11200
H1555       H  0.83103150  0.42266045  0.38260831     0.11300
H1556       H  0.81279159  0.44130212  0.41858761     0.13200
H1557       H  0.77815203  0.44522633  0.41575689     0.09700
H1558       H  0.74661998  0.43413499  0.40467734     0.11800
H1559       H  0.77423433  0.39260788  0.36694962     0.08400
H1560       H  0.80569009  0.40351143  0.37821784     0.11200
C1561       C  0.38753410  0.98368817  0.01673441    -0.03400
C1562       C  0.38101583  0.96514170  0.01156533    -0.06000
C1563       C  0.36883975  0.95468021  0.02386084    -0.21100
C1564       C  0.36247443  0.96250432  0.04154737     0.24600
C1565       C  0.36915589  0.98096261  0.04702410    -0.18700
C1566       C  0.38167710  0.99140672  0.03475963    -0.08700
C1567       C  0.34901664  0.95069493  0.05363695    -0.18900
C1568       C  0.33562282  0.95812492  0.06574565    -0.23700
C1569       C  0.32031600  0.94600587  0.07505663     0.26600
C1570       C  0.30228085  0.95433302  0.07909642    -0.20500
C1571       C  0.28699031  0.94303851  0.08610364    -0.10100
C1572       C  0.28945853  0.92315396  0.08961339    -0.10700
C1573       C  0.30781785  0.91502353  0.08661397    -0.03600
C1574       C  0.32306027  0.92628597  0.07938663    -0.18700
H1575       H  0.38532035  0.95862667  0.99790945     0.10400
H1576       H  0.36406112  0.94047162  0.01931584     0.10400
H1577       H  0.36488176  0.98726855  0.06077293     0.10100
H1578       H  0.38651346  0.00560732  0.03922607     0.11200
H1579       H  0.34884819  0.93527415  0.05078893     0.11300
H1580       H  0.33451166  0.97370005  0.06723301     0.13200
H1581       H  0.29978941  0.96950909  0.07614515     0.09700
H1582       H  0.27310869  0.94983759  0.08845604     0.11800
H1583       H  0.31026502  0.89979374  0.08925178     0.08400
H1584       H  0.33691441  0.91945005  0.07709170     0.11200
C1585       C  0.92686706  0.09385821  0.28234376    -0.03400
C1586       C  0.94426432  0.08395560  0.27882600    -0.06000
C1587       C  0.95507632  0.07631575  0.29420451    -0.21100
C1588       C  0.94868876  0.07808339  0.31348128     0.24600
C1589       C  0.93156359  0.08840598  0.31717017    -0.18700
C1590       C  0.92079639  0.09626722  0.30174486    -0.08700
C1591       C  0.96026503  0.06887956  0.32922852    -0.18900
C1592       C  0.95234882  0.06155848  0.34555561    -0.23700
C1593       C  0.96353459  0.04997799  0.35993601     0.26600
C1594       C  0.95408819  0.03511617  0.37004677    -0.20500
C1595       C  0.96427533  0.02318437  0.38288507    -0.10100
C1596       C  0.98406743  0.02617950  0.38630848    -0.10700
C1597       C  0.99341191  0.04154752  0.37682339    -0.03600
C1598       C  0.98328098  0.05327007  0.36363563    -0.18700
H1599       H  0.94951102  0.08191522  0.26412017     0.10400
H1600       H  0.96827888  0.06856790  0.29097273     0.10400
H1601       H  0.92649806  0.09047440  0.33192632     0.10100
H1602       H  0.90755234  0.10391036  0.30500228     0.11200
H1603       H  0.97546695  0.06632125  0.32633909     0.11300
H1604       H  0.93680798  0.06235801  0.34750391     0.13200
H1605       H  0.93887150  0.03237657  0.36758736     0.09700
H1606       H  0.95667055  0.01152550  0.39010146     0.11800
H1607       H  0.00865893  0.04415624  0.37919265     0.08400
H1608       H  0.99089892  0.06490139  0.35642616     0.11200
C1609       C  0.19913889  0.25207704  0.75972753    -0.03400
C1610       C  0.20732449  0.25944462  0.77693075    -0.06000
C1611       C  0.19628288  0.26118476  0.79386361    -0.21100
C1612       C  0.17665014  0.25625842  0.79385833     0.24600
C1613       C  0.16816901  0.24951829  0.77651428    -0.18700
C1614       C  0.17939880  0.24720832  0.75964213    -0.08700
C1615       C  0.16606760  0.25625686  0.81263691    -0.18900
C1616       C  0.14770784  0.26231363  0.81470706    -0.23700
C1617       C  0.13759296  0.26099847  0.83378107     0.26600
C1618       C  0.12507131  0.27575824  0.83991931    -0.20500
C1619       C  0.11528698  0.27430390  0.85780006    -0.10100
C1620       C  0.11748414  0.25779289  0.86957586    -0.10700
C1621       C  0.12997284  0.24304826  0.86326388    -0.03600
C1622       C  0.13993272  0.24465761  0.84567883    -0.18700
H1623       H  0.22250160  0.26318944  0.77752228     0.10400
H1624       H  0.20315882  0.26619834  0.80711517     0.10400
H1625       H  0.15311808  0.24526726  0.77624253     0.10100
H1626       H  0.17270808  0.24149906  0.74658976     0.11200
H1627       H  0.17405332  0.25167781  0.82548424     0.11300
H1628       H  0.14020557  0.26877912  0.80240833     0.13200
H1629       H  0.12295127  0.28844557  0.83092069     0.09700
H1630       H  0.10566486  0.28583585  0.86215761     0.11800
H1631       H  0.13200695  0.23009503  0.87188878     0.08400
H1632       H  0.14914700  0.23285299  0.84116593     0.11200
C1633       C  0.07818760  0.28336881  0.92450178    -0.03400
C1634       C  0.08480195  0.30244743  0.92211800    -0.06000
C1635       C  0.07658548  0.31761351  0.93283880    -0.21100
C1636       C  0.06134412  0.31412583  0.94587429     0.24600
C1637       C  0.05484287  0.29500773  0.94833722    -0.18700
C1638       C  0.06315864  0.27986960  0.93780733    -0.08700
C1639       C  0.05261136  0.33055639  0.95684856    -0.18900
C1640       C  0.03398222  0.33048717  0.96250766    -0.23700
C1641       C  0.02412377  0.34681700  0.97246500     0.26600
C1642       C  0.00413764  0.34859465  0.96993218    -0.20500
C1643       C  0.99384382  0.36313014  0.97932473    -0.10100
C1644       C  0.00316634  0.37622909  0.99188109    -0.10700
C1645       C  0.02323658  0.37442979  0.99465054    -0.03600
C1646       C  0.03367354  0.35989470  0.98492940    -0.18700
H1647       H  0.09650260  0.30562417  0.91216737     0.10400
H1648       H  0.08200394  0.33215471  0.93078016     0.10400
H1649       H  0.04354996  0.29158376  0.95865608     0.10100
H1650       H  0.05776060  0.26536204  0.94010937     0.11200
H1651       H  0.06131215  0.34340966  0.95915270     0.11300
H1652       H  0.02492316  0.31834255  0.95840709     0.13200
H1653       H  0.99638927  0.33866842  0.96054706     0.09700
H1654       H  0.97840859  0.36390265  0.97687175     0.11800
H1655       H  0.03082945  0.38420776  0.00429425     0.08400
H1656       H  0.04904172  0.35865049  0.98752084     0.11200
C1657       C  0.19113256  0.91537442  0.88924652    -0.03400
C1658       C  0.17283141  0.90654535  0.88937744    -0.06000
C1659       C  0.15733779  0.91511809  0.89926220    -0.21100
C1660       C  0.15966165  0.93285025  0.90894471     0.24600
C1661       C  0.17791236  0.94177107  0.90863306    -0.18700
C1662       C  0.19341483  0.93313801  0.89893059    -0.08700
C1663       C  0.14326863  0.94092345  0.92041297    -0.18900
C1664       C  0.14149596  0.95984927  0.92485033    -0.23700
C1665       C  0.12618155  0.96768037  0.93789589     0.26600
C1666       C  0.12100106  0.98726865  0.93647137    -0.20500
C1667       C  0.10745191  0.99535734  0.94926826    -0.10100
C1668       C  0.09898355  0.98406567  0.96400224    -0.10700
C1669       C  0.10425318  0.96446158  0.96543026    -0.03600
C1670       C  0.11764909  0.95637320  0.95257967    -0.18700
H1671       H  0.17054199  0.89285061  0.88212920     0.10400
H1672       H  0.14349772  0.90781968  0.89942749     0.10400
H1673       H  0.18048973  0.95512765  0.91636766     0.10100
H1674       H  0.20727345  0.94038567  0.89915715     0.11200
H1675       H  0.13219956  0.93086616  0.92514767     0.11300
H1676       H  0.15148791  0.97016765  0.91852179     0.13200
H1677       H  0.12752542  0.99637656  0.92544946     0.09700
H1678       H  0.10383468  0.01050021  0.94779991     0.11800
H1679       H  0.09815486  0.95531083  0.97665770     0.08400
H1680       H  0.12167934  0.94141441  0.95460489     0.11200
C1681       C  0.09522965  0.96194957  0.06399396    -0.03400
C1682       C  0.10036488  0.96369694  0.08374166    -0.06000
C1683       C  0.11847118  0.95733289  0.09026916    -0.21100
C1684       C  0.13153315  0.94873715  0.07727897     0.24600
C1685       C  0.12620092  0.94667367  0.05762456    -0.18700
C1686       C  0.10829967  0.95324583  0.05107108    -0.08700
C1687       C  0.15107209  0.94305788  0.08411035    -0.18900
C1688       C  0.16068507  0.92809667  0.07626026    -0.23700
C1689       C  0.18066863  0.92279051  0.08178128     0.26600
C1690       C  0.18606450  0.90331352  0.08100523    -0.20500
C1691       C  0.20497534  0.89776741  0.08524683    -0.10100
C1692       C  0.21906436  0.91166231  0.08984373    -0.10700
C1693       C  0.21379473  0.93125210  0.09027673    -0.03600
C1694       C  0.19468573  0.93677640  0.08644821    -0.18700
H1695       H  0.09068323  0.97057881  0.09397833     0.10400
H1696       H  0.12234548  0.95923839  0.10544286     0.10400
H1697       H  0.13611240  0.94061921  0.04709930     0.10100
H1698       H  0.10483164  0.95182012  0.03574540     0.11200
H1699       H  0.15749992  0.95110814  0.09605391     0.11300
H1700       H  0.15340590  0.91886443  0.06577101     0.13200
H1701       H  0.17556803  0.89233149  0.07719549     0.09700
H1702       H  0.20864327  0.88257218  0.08465427     0.11800
H1703       H  0.22437549  0.94224013  0.09379044     0.08400
H1704       H  0.19101241  0.95197129  0.08667042     0.11200
C1705       C  0.89059933  0.18653387  0.92534088    -0.03400
C1706       C  0.90229229  0.19002593  0.94174827    -0.06000
C1707       C  0.91053268  0.17476346  0.95215672    -0.21100
C1708       C  0.90750906  0.15555762  0.94644902     0.24600
C1709       C  0.89575071  0.15192499  0.93006970    -0.18700
C1710       C  0.88743024  0.16727000  0.91961478    -0.08700
C1711       C  0.91690708  0.13998623  0.95811920    -0.18900
C1712       C  0.92089536  0.12222212  0.95122031    -0.23700
C1713       C  0.93308960  0.10810759  0.96207071     0.26600
C1714       C  0.94461486  0.09532083  0.95137741    -0.20500
C1715       C  0.95769322  0.08311413  0.96079747    -0.10100
C1716       C  0.95935813  0.08312802  0.98123564    -0.10700
C1717       C  0.94700056  0.09508934  0.99207395    -0.03600
C1718       C  0.93401676  0.10752103  0.98258765    -0.18700
H1719       H  0.90510806  0.20461295  0.94665462     0.10400
H1720       H  0.91948504  0.17802513  0.96469622     0.10400
H1721       H  0.89267745  0.13731852  0.92543867     0.10100
H1722       H  0.87837465  0.16402073  0.90716348     0.11200
H1723       H  0.92234652  0.14398350  0.97239991     0.11300
H1724       H  0.91707584  0.11864210  0.93632177     0.13200
H1725       H  0.94403745  0.09528723  0.93559896     0.09700
H1726       H  0.96679310  0.07388907  0.95199162     0.11800
H1727       H  0.94780094  0.09529788  0.00783334     0.08400
H1728       H  0.92488146  0.11674689  0.99132843     0.11200
C1729       C  0.05617853  0.08618910  0.95592750    -0.03400
C1730       C  0.04139034  0.09809529  0.94861654    -0.06000
C1731       C  0.04530661  0.11693819  0.94252982    -0.21100
C1732       C  0.06409350  0.12446783  0.94350988     0.24600
C1733       C  0.07912557  0.11229253  0.95002946    -0.18700
C1734       C  0.07518942  0.09331129  0.95607761    -0.08700
C1735       C  0.06688994  0.14529644  0.93859570    -0.18900
C1736       C  0.08414926  0.15372260  0.93545060    -0.23700
C1737       C  0.08627665  0.17446519  0.93005521     0.26600
C1738       C  0.10227036  0.18002839  0.91887694    -0.20500
C1739       C  0.10459644  0.19920417  0.91295935    -0.10100
C1740       C  0.09116207  0.21342202  0.91841274    -0.10700
C1741       C  0.07548368  0.20805206  0.93022330    -0.03600
C1742       C  0.07300571  0.18874755  0.93593873    -0.18700
H1743       H  0.02656828  0.09309213  0.94825530     0.10400
H1744       H  0.03344618  0.12586311  0.93751657     0.10400
H1745       H  0.09378721  0.11748386  0.95131540     0.10100
H1746       H  0.08685676  0.08459165  0.96184604     0.11200
H1747       H  0.05392338  0.15395058  0.93688032     0.11300
H1748       H  0.09715512  0.14501678  0.93551237     0.13200
H1749       H  0.11283062  0.16940426  0.91435924     0.09700
H1750       H  0.11696743  0.20289270  0.90406228     0.11800
H1751       H  0.06494703  0.21869173  0.93474143     0.08400
H1752       H  0.06081447  0.18512380  0.94507950     0.11200
C1753       C  0.92335017  0.88655233  0.19178439    -0.03400
C1754       C  0.91570013  0.88508309  0.17285730    -0.06000
C1755       C  0.92482426  0.89417681  0.15713244    -0.21100
C1756       C  0.94193113  0.90477140  0.15982836     0.24600
C1757       C  0.94966992  0.90617219  0.17875482    -0.18700
C1758       C  0.94048726  0.89716785  0.19450611    -0.08700
C1759       C  0.95036847  0.91525190  0.14284907    -0.18900
C1760       C  0.96871881  0.92184885  0.14205881    -0.23700
C1761       C  0.97627414  0.93411613  0.12585926     0.26600
C1762       C  0.99634260  0.93580853  0.12314187    -0.20500
C1763       C  0.00393303  0.94844219  0.10907895    -0.10100
C1764       C  0.99156997  0.95987662  0.09761249    -0.10700
C1765       C  0.97150074  0.95790102  0.10012009    -0.03600
C1766       C  0.96394919  0.94526887  0.11404010    -0.18700
H1767       H  0.90250502  0.87711005  0.17019631     0.10400
H1768       H  0.91839841  0.89301845  0.14277326     0.10400
H1769       H  0.96248652  0.91463013  0.18163139     0.10100
H1770       H  0.94679674  0.89865444  0.20887477     0.11200
H1771       H  0.94093272  0.91740781  0.13039870     0.11300
H1772       H  0.97873283  0.91817034  0.15365979     0.13200
H1773       H  0.00620061  0.92752152  0.13213343     0.09700
H1774       H  0.01944853  0.94964481  0.10756364     0.11800
H1775       H  0.96151454  0.96644776  0.09153915     0.08400
H1776       H  0.94845819  0.94493030  0.11592035     0.11200
C1777       C  0.95914717  0.05661493  0.08841015    -0.03400
C1778       C  0.95979523  0.07655600  0.09218772    -0.06000
C1779       C  0.95331604  0.08387353  0.11001354    -0.21100
C1780       C  0.94557953  0.07151467  0.12421523     0.24600
C1781       C  0.94426301  0.05164300  0.12019869    -0.18700
C1782       C  0.95112527  0.04426006  0.10253515    -0.08700
C1783       C  0.94051685  0.07946731  0.14362386    -0.18900
C1784       C  0.92607545  0.07242814  0.15463880    -0.23700
C1785       C  0.92175903  0.08011582  0.17431886     0.26600
C1786       C  0.90249801  0.08179775  0.18037798    -0.20500
C1787       C  0.89811899  0.08877028  0.19898460    -0.10100
C1788       C  0.91296546  0.09352379  0.21210474    -0.10700
C1789       C  0.93225744  0.09144761  0.20620251    -0.03600
C1790       C  0.93662737  0.08501878  0.18739591    -0.18700
H1791       H  0.96614561  0.08640906  0.08173474     0.10400
H1792       H  0.95462248  0.09920951  0.11285121     0.10400
H1793       H  0.93875617  0.04168504  0.13102214     0.10100
H1794       H  0.95058933  0.02880965  0.10012173     0.11200
H1795       H  0.94861929  0.09191196  0.14877410     0.11300
H1796       H  0.91663057  0.06132101  0.14877578     0.13200
H1797       H  0.89082958  0.07790688  0.17061007     0.09700
H1798       H  0.88312976  0.09007004  0.20327345     0.11800
H1799       H  0.94394856  0.09498499  0.21607905     0.08400
H1800       H  0.95162242  0.08346503  0.18323444     0.11200
C1801       C  0.19219426  0.71081621  0.71348498    -0.03400
C1802       C  0.17309651  0.71771790  0.71399284    -0.06000
C1803       C  0.16056896  0.71452253  0.69830887    -0.21100
C1804       C  0.16699354  0.70477289  0.68163914     0.24600
C1805       C  0.18583736  0.69724582  0.68137172    -0.18700
C1806       C  0.19826800  0.70013650  0.69719058    -0.08700
C1807       C  0.15405943  0.70340107  0.66444760    -0.18900
C1808       C  0.16074236  0.70566260  0.64619866    -0.23700
C1809       C  0.14767489  0.70828194  0.62933482     0.26600
C1810       C  0.15163332  0.72313255  0.61604427    -0.20500
C1811       C  0.13891257  0.72700886  0.60074413    -0.10100
C1812       C  0.12231211  0.71566625  0.59805545    -0.10700
C1813       C  0.11880371  0.70014717  0.61078916    -0.03600
C1814       C  0.13127325  0.69663112  0.62650876    -0.18700
H1815       H  0.16791093  0.72585493  0.72638959     0.10400
H1816       H  0.14605990  0.72034286  0.69887690     0.10400
H1817       H  0.19103155  0.68930157  0.66885635     0.10100
H1818       H  0.21284778  0.69455711  0.69635417     0.11200
H1819       H  0.13855874  0.70300107  0.66691236     0.11300
H1820       H  0.17603647  0.70835430  0.64391406     0.13200
H1821       H  0.16425541  0.73220152  0.61792429     0.09700
H1822       H  0.14199968  0.73896590  0.59104089     0.11800
H1823       H  0.10607993  0.69121302  0.60900108     0.08400
H1824       H  0.12810610  0.68490477  0.63646064     0.11200
C1825       C  0.21852015  0.86656397  0.84383387    -0.03400
C1826       C  0.23402280  0.86179387  0.83155230    -0.06000
C1827       C  0.23317189  0.84564468  0.81954630    -0.21100
C1828       C  0.21683016  0.83370852  0.81935155     0.24600
C1829       C  0.20099090  0.83861257  0.83125462    -0.18700
C1830       C  0.20182464  0.85497837  0.84335146    -0.08700
C1831       C  0.21786586  0.81583536  0.80739558    -0.18900
C1832       C  0.20291585  0.80420242  0.80291116    -0.23700
C1833       C  0.20582777  0.78632847  0.79124897     0.26600
C1834       C  0.19139831  0.78002401  0.77835758    -0.20500
C1835       C  0.19437626  0.76372214  0.76662892    -0.10100
C1836       C  0.21178374  0.75326296  0.76777887    -0.10700
C1837       C  0.22589920  0.75925008  0.78121644    -0.03600
C1838       C  0.22294143  0.77549437  0.79283820    -0.18700
H1839       H  0.24706806  0.87042849  0.83133771     0.10400
H1840       H  0.24557518  0.84229020  0.81055978     0.10400
H1841       H  0.18821727  0.82963589  0.83174079     0.10100
H1842       H  0.18967880  0.85822923  0.85270017     0.11200
H1843       H  0.23199393  0.81224910  0.80156480     0.11300
H1844       H  0.18830825  0.80816155  0.80694899     0.13200
H1845       H  0.17799479  0.78798448  0.77703765     0.09700
H1846       H  0.18311883  0.75943669  0.75655282     0.11800
H1847       H  0.23937550  0.75145798  0.78272487     0.08400
H1848       H  0.23409000  0.77947463  0.80315167     0.11200
C1849       C  0.25496774  0.70111409  0.74631734    -0.03400
C1850       C  0.27169752  0.71131529  0.75168060    -0.06000
C1851       C  0.28950612  0.70187351  0.75303479    -0.21100
C1852       C  0.29086740  0.68193690  0.74969290     0.24600
C1853       C  0.27409836  0.67165391  0.74448526    -0.18700
C1854       C  0.25634823  0.68121044  0.74261578    -0.08700
C1855       C  0.31012779  0.67251019  0.75042330    -0.18900
C1856       C  0.31277134  0.65420345  0.75655395    -0.23700
C1857       C  0.33177880  0.64420757  0.75572388     0.26600
C1858       C  0.33580866  0.62917174  0.76889569    -0.20500
C1859       C  0.35273361  0.61818806  0.76712775    -0.10100
C1860       C  0.36569725  0.62174342  0.75181544    -0.10700
C1861       C  0.36189423  0.63710869  0.73895339    -0.03600
C1862       C  0.34520453  0.64828063  0.74092844    -0.18700
H1863       H  0.27107488  0.72670202  0.75445207     0.10400
H1864       H  0.30225607  0.71014415  0.75681012     0.10400
H1865       H  0.27478436  0.65634898  0.74134782     0.10100
H1866       H  0.24367041  0.67302148  0.73844990     0.11200
H1867       H  0.32255874  0.68115556  0.74627966     0.11300
H1868       H  0.30060768  0.64625807  0.76253667     0.13200
H1869       H  0.32562812  0.62565898  0.78033138     0.09700
H1870       H  0.35517457  0.60631314  0.77711661     0.11800
H1871       H  0.37159538  0.64015554  0.72696962     0.08400
H1872       H  0.34240932  0.65944926  0.73024676     0.11200
C1873       C  0.71288647  0.19815841  0.72273310    -0.03400
C1874       C  0.71039535  0.18203087  0.73493591    -0.06000
C1875       C  0.69397436  0.17046494  0.73337412    -0.21100
C1876       C  0.67958207  0.17463676  0.71960107     0.24600
C1877       C  0.68210625  0.19064968  0.70716575    -0.18700
C1878       C  0.69864903  0.20223032  0.70868462    -0.08700
C1879       C  0.66176045  0.16264499  0.71982071    -0.18900
C1880       C  0.64807982  0.16267450  0.70583005    -0.23700
C1881       C  0.62988932  0.15140661  0.70776651     0.26600
C1882       C  0.62011988  0.14510071  0.69099532    -0.20500
C1883       C  0.60292392  0.13451416  0.69254072    -0.10100
C1884       C  0.59507532  0.13020343  0.71093518    -0.10700
C1885       C  0.60468970  0.13693165  0.72766768    -0.03600
C1886       C  0.62178837  0.14745409  0.72611822    -0.18700
H1887       H  0.72106118  0.17838593  0.74588566     0.10400
H1888       H  0.69240234  0.15830676  0.74320496     0.10400
H1889       H  0.67121005  0.19467109  0.69664570     0.10100
H1890       H  0.70005855  0.21462170  0.69913977     0.11200
H1891       H  0.65996433  0.15310515  0.73225745     0.11300
H1892       H  0.65030714  0.17067039  0.69242834     0.13200
H1893       H  0.62592004  0.14819599  0.67667936     0.09700
H1894       H  0.59584608  0.12965806  0.67934793     0.11800
H1895       H  0.59899103  0.13414884  0.74208634     0.08400
H1896       H  0.62840366  0.15274477  0.73936562     0.11200
C1897       C  0.76904031  0.21791184  0.76158327    -0.03400
C1898       C  0.76064348  0.21048920  0.77865004    -0.06000
C1899       C  0.77125745  0.20951011  0.79592775    -0.21100
C1900       C  0.79062784  0.21534120  0.79636206     0.24600
C1901       C  0.79921348  0.22244355  0.77923561    -0.18700
C1902       C  0.78843100  0.22389061  0.76201983    -0.08700
C1903       C  0.80108064  0.21508590  0.81516964    -0.18900
C1904       C  0.81992500  0.21065525  0.81674405    -0.23700
C1905       C  0.83014713  0.21116298  0.83572985     0.26600
C1906       C  0.84494289  0.19784472  0.83970665    -0.20500
C1907       C  0.85508074  0.19858052  0.85740120    -0.10100
C1908       C  0.85089032  0.21302296  0.87110298    -0.10700
C1909       C  0.83609787  0.22633167  0.86703755    -0.03600
C1910       C  0.82578877  0.22537557  0.84961521    -0.18700
H1911       H  0.74567289  0.20595226  0.77879962     0.10400
H1912       H  0.76432225  0.20418542  0.80901705     0.10400
H1913       H  0.81403630  0.22743095  0.77930455     0.10100
H1914       H  0.79522318  0.22971030  0.74907566     0.11200
H1915       H  0.79272559  0.21782461  0.82827148     0.11300
H1916       H  0.82786070  0.20593005  0.80396413     0.13200
H1917       H  0.84863332  0.18687501  0.82911049     0.09700
H1918       H  0.86656903  0.18830650  0.86008802     0.11800
H1919       H  0.83259082  0.23766888  0.87730305     0.08400
H1920       H  0.81479193  0.23613806  0.84679537     0.11200
C1921       C  0.75296930  0.25348596  0.70152728    -0.03400
C1922       C  0.76948053  0.26515131  0.70363415    -0.06000
C1923       C  0.77201266  0.28157911  0.69202016    -0.21100
C1924       C  0.75820720  0.28671648  0.67794609     0.24600
C1925       C  0.74179964  0.27486531  0.67564459    -0.18700
C1926       C  0.73930315  0.25841221  0.68720538    -0.08700
C1927       C  0.76080448  0.30513195  0.66695913    -0.18900
C1928       C  0.75137251  0.30926516  0.65028781    -0.23700
C1929       C  0.75201070  0.32840326  0.64046654     0.26600
C1930       C  0.73613738  0.33377320  0.62898940    -0.20500
C1931       C  0.73551360  0.35180903  0.61995912    -0.10100
C1932       C  0.75095708  0.36484825  0.62184731    -0.10700
C1933       C  0.76721940  0.35930852  0.63277531    -0.03600
C1934       C  0.76771582  0.34126777  0.64212902    -0.18700
H1935       H  0.78032999  0.26180356  0.71450494     0.10400
H1936       H  0.78471371  0.29046312  0.69421818     0.10400
H1937       H  0.73042926  0.27849450  0.66548588     0.10100
H1938       H  0.72632658  0.24988198  0.68528628     0.11200
H1939       H  0.77045785  0.31581307  0.67323412     0.11300
H1940       H  0.74180197  0.29859039  0.64392280     0.13200
H1941       H  0.72392885  0.32410779  0.62732806     0.09700
H1942       H  0.72285258  0.35556246  0.61147905     0.11800
H1943       H  0.77933154  0.36907421  0.63444169     0.08400
H1944       H  0.78042259  0.33742914  0.65045689     0.11200
C1945       C  0.69663520  0.21777295  0.20824886    -0.03400
C1946       C  0.67763471  0.22485557  0.20748719    -0.06000
C1947       C  0.66608828  0.22162984  0.19105401    -0.21100
C1948       C  0.67343535  0.21172289  0.17485952     0.24600
C1949       C  0.69237491  0.20447855  0.17562842    -0.18700
C1950       C  0.70380176  0.20736576  0.19220617    -0.08700
C1951       C  0.66102171  0.20921199  0.15739598    -0.18900
C1952       C  0.66803164  0.21019430  0.13914175    -0.23700
C1953       C  0.65525133  0.21048978  0.12178705     0.26600
C1954       C  0.65964816  0.22304638  0.10636879    -0.20500
C1955       C  0.64713560  0.22478196  0.09046181    -0.10100
C1956       C  0.63033714  0.21347245  0.08936188    -0.10700
C1957       C  0.62641068  0.20016013  0.10429995    -0.03600
C1958       C  0.63865627  0.19882732  0.12051419    -0.18700
H1959       H  0.67163473  0.23277354  0.21964887     0.10400
H1960       H  0.65148718  0.22723850  0.19082147     0.10400
H1961       H  0.69829724  0.19643520  0.16351402     0.10100
H1962       H  0.71835847  0.20165432  0.19234297     0.11200
H1963       H  0.64549363  0.20851919  0.15957238     0.11300
H1964       H  0.68330379  0.21306034  0.13693996     0.13200
H1965       H  0.67243004  0.23205680  0.10698363     0.09700
H1966       H  0.65049825  0.23508001  0.07906492     0.11800
H1967       H  0.61350102  0.19133287  0.10378338     0.08400
H1968       H  0.63512884  0.18876120  0.13206046     0.11200
C1969       C  0.75373745  0.20050949  0.24716099    -0.03400
C1970       C  0.75563026  0.18342800  0.23630215    -0.06000
C1971       C  0.77225587  0.17215785  0.23773818    -0.21100
C1972       C  0.78751960  0.17754284  0.25005188     0.24600
C1973       C  0.78556678  0.19443338  0.26132674    -0.18700
C1974       C  0.76877242  0.20575194  0.25994045    -0.08700
C1975       C  0.80545204  0.16566966  0.24943616    -0.18900
C1976       C  0.82012903  0.16647345  0.26236551    -0.23700
C1977       C  0.83784729  0.15445159  0.26000529     0.26600
C1978       C  0.84825997  0.14824972  0.27645598    -0.20500
C1979       C  0.86464187  0.13645868  0.27440716    -0.10100
C1980       C  0.87102124  0.13079194  0.25580598    -0.10700
C1981       C  0.86088882  0.13756676  0.23938401    -0.03600
C1982       C  0.84463932  0.14928639  0.24143236    -0.18700
H1983       H  0.74431978  0.17881172  0.22643951     0.10400
H1984       H  0.77330375  0.15925425  0.22887970     0.10400
H1985       H  0.79709737  0.19928724  0.27075608     0.10100
H1986       H  0.76780281  0.21887479  0.26845681     0.11200
H1987       H  0.80636366  0.15526338  0.23764290     0.11300
H1988       H  0.81894170  0.17541823  0.27527347     0.13200
H1989       H  0.84350620  0.15224947  0.29092778     0.09700
H1990       H  0.87218086  0.13166145  0.28736803     0.11800
H1991       H  0.86550776  0.13385976  0.22479545     0.08400
H1992       H  0.83755562  0.15443585  0.22836044     0.11200
C1993       C  0.71218010  0.25507613  0.26765954    -0.03400
C1994       C  0.69822065  0.26913617  0.26298559    -0.06000
C1995       C  0.69512564  0.28499635  0.27527330    -0.21100
C1996       C  0.70596366  0.28723565  0.29242533     0.24600
C1997       C  0.71924097  0.27268118  0.29756220    -0.18700
C1998       C  0.72239071  0.25689953  0.28527382    -0.08700
C1999       C  0.70343503  0.30498904  0.30447289    -0.18900
C2000       C  0.71805133  0.31247807  0.31506245    -0.23700
C2001       C  0.71727438  0.33068465  0.32663695     0.26600
C2002       C  0.73483207  0.33824420  0.33340790    -0.20500
C2003       C  0.73534575  0.35497714  0.34466810    -0.10100
C2004       C  0.71824446  0.36471283  0.34967916    -0.10700
C2005       C  0.70054010  0.35721297  0.34295132    -0.03600
C2006       C  0.70003087  0.34035773  0.33152790    -0.18700
H2007       H  0.68996802  0.26814232  0.24961178     0.10400
H2008       H  0.68463055  0.29583465  0.27107998     0.10400
H2009       H  0.72727520  0.27341282  0.31106745     0.10100
H2010       H  0.73295453  0.24616790  0.28956124     0.11200
H2011       H  0.68981966  0.31264725  0.30338170     0.11300
H2012       H  0.73198656  0.30532710  0.31452871     0.13200
H2013       H  0.74834422  0.33113860  0.32998087     0.09700
H2014       H  0.74927798  0.36017213  0.34956271     0.11800
H2015       H  0.68708258  0.36430429  0.34657149     0.08400
H2016       H  0.68614823  0.33488741  0.32688728     0.11200
C2017       C  0.34739345  0.25331344  0.09632174    -0.03400
C2018       C  0.33665331  0.23728590  0.10272570    -0.06000
C2019       C  0.32616232  0.23805940  0.12003247    -0.21100
C2020       C  0.32595776  0.25487437  0.13138545     0.24600
C2021       C  0.33624179  0.27118314  0.12480108    -0.18700
C2022       C  0.34681820  0.27040848  0.10737890    -0.08700
C2023       C  0.31585873  0.25416222  0.15047913    -0.18900
C2024       C  0.30920779  0.26971127  0.16014886    -0.23700
C2025       C  0.29867906  0.26780332  0.17894786     0.26600
C2026       C  0.28378278  0.28078177  0.18341775    -0.20500
C2027       C  0.27282612  0.27845695  0.20041023    -0.10100
C2028       C  0.27672622  0.26321470  0.21344970    -0.10700
C2029       C  0.29230850  0.25083693  0.20940609    -0.03600
C2030       C  0.30315131  0.25309803  0.19238592    -0.18700
H2031       H  0.33659994  0.22393067  0.09452949     0.10400
H2032       H  0.31835916  0.22530478  0.12472393     0.10400
H2033       H  0.33672678  0.28428636  0.13335669     0.10100
H2034       H  0.35503747  0.28296591  0.10291829     0.11200
H2035       H  0.31297183  0.23989232  0.15641525     0.11300
H2036       H  0.31023200  0.28394506  0.15357122     0.13200
H2037       H  0.28021917  0.29238696  0.17343476     0.09700
H2038       H  0.26106330  0.28839021  0.20311744     0.11800
H2039       H  0.29593286  0.23910453  0.21919904     0.08400
H2040       H  0.31500383  0.24326046  0.18975762     0.11200
C2041       C  0.25959623  0.22361637  0.27083297    -0.03400
C2042       C  0.27604564  0.21195521  0.26813795    -0.06000
C2043       C  0.27883193  0.19525284  0.27937946    -0.21100
C2044       C  0.26516225  0.18969627  0.29338644     0.24600
C2045       C  0.24919699  0.20184105  0.29670994    -0.18700
C2046       C  0.24642797  0.21852188  0.28553922    -0.08700
C2047       C  0.26762390  0.17106596  0.30407351    -0.18900
C2048       C  0.25229353  0.16054148  0.30991372    -0.23700
C2049       C  0.25304258  0.14149480  0.32007605     0.26600
C2050       C  0.23561281  0.13137279  0.32206211    -0.20500
C2051       C  0.23481147  0.11394938  0.33219371    -0.10100
C2052       C  0.25146851  0.10599413  0.34073705    -0.10700
C2053       C  0.26912789  0.11583472  0.33849184    -0.03600
C2054       C  0.26992461  0.13348470  0.32831271    -0.18700
H2055       H  0.28661749  0.21551272  0.25709406     0.10400
H2056       H  0.29139536  0.18632958  0.27670515     0.10400
H2057       H  0.23874791  0.19849244  0.30792141     0.10100
H2058       H  0.23375918  0.22726428  0.28827073     0.11200
H2059       H  0.28214145  0.16546449  0.30589231     0.11300
H2060       H  0.23796207  0.16588190  0.30638249     0.13200
H2061       H  0.22238177  0.13707598  0.31587423     0.09700
H2062       H  0.22096516  0.10677371  0.33341570     0.11800
H2063       H  0.28221583  0.11013066  0.34495445     0.08400
H2064       H  0.28363465  0.14088823  0.32733116     0.11200
C2065       C  0.09593383  0.34011476  0.25900149    -0.03400
C2066       C  0.10300704  0.33531484  0.27762173    -0.06000
C2067       C  0.12006155  0.32445097  0.27966243    -0.21100
C2068       C  0.13047229  0.31839485  0.26317782     0.24600
C2069       C  0.12292105  0.32254649  0.24462916    -0.18700
C2070       C  0.10600664  0.33327896  0.24259001    -0.08700
C2071       C  0.14902964  0.30763895  0.26546099    -0.18900
C2072       C  0.16330642  0.30893654  0.25212024    -0.23700
C2073       C  0.18204441  0.29832382  0.25277133     0.26600
C2074       C  0.19670049  0.30419857  0.23993934    -0.20500
C2075       C  0.21413338  0.29411636  0.23881808    -0.10100
C2076       C  0.21743365  0.27775565  0.25049505    -0.10700
C2077       C  0.20291132  0.27199444  0.26363399    -0.03600
C2078       C  0.18537271  0.28211232  0.26473307    -0.18700
H2079       H  0.09554605  0.34015558  0.29057255     0.10400
H2080       H  0.12537770  0.32115816  0.29414072     0.10400
H2081       H  0.12997555  0.31742858  0.23156852     0.10100
H2082       H  0.10093331  0.33631583  0.22797141     0.11200
H2083       H  0.15114675  0.29926339  0.27865858     0.11300
H2084       H  0.16141393  0.31882103  0.23996650     0.13200
H2085       H  0.19457405  0.31657425  0.23049508     0.09700
H2086       H  0.22494044  0.29905396  0.22857168     0.11800
H2087       H  0.20489880  0.25938700  0.27277477     0.08400
H2088       H  0.17437230  0.27684803  0.27455306     0.11200
C2089       C  0.72383782  0.70533593  0.21341682    -0.03400
C2090       C  0.73656899  0.70049865  0.19827509    -0.06000
C2091       C  0.73414515  0.68348258  0.18774756    -0.21100
C2092       C  0.71891030  0.67079141  0.19192118     0.24600
C2093       C  0.70583291  0.67568219  0.20680606    -0.18700
C2094       C  0.70827668  0.69284071  0.21743788    -0.08700
C2095       C  0.71834575  0.65219442  0.18114654    -0.18900
C2096       C  0.70322471  0.63994650  0.18020581    -0.23700
C2097       C  0.70475942  0.62160584  0.16903072     0.26600
C2098       C  0.68901829  0.61469153  0.15813902    -0.20500
C2099       C  0.69123683  0.59872233  0.14572755    -0.10100
C2100       C  0.70922522  0.58938420  0.14417608    -0.10700
C2101       C  0.72446752  0.59552630  0.15621415    -0.03600
C2102       C  0.72224063  0.61132894  0.16853469    -0.18700
H2103       H  0.74867485  0.70972995  0.19465590     0.10400
H2104       H  0.74446132  0.68009048  0.17640754     0.10400
H2105       H  0.69409586  0.66611542  0.21067618     0.10100
H2106       H  0.69823668  0.69609783  0.22905098     0.11200
H2107       H  0.73127771  0.64859568  0.17297492     0.11300
H2108       H  0.68943025  0.64380169  0.18657064     0.13200
H2109       H  0.67529538  0.62217611  0.15854630     0.09700
H2110       H  0.67914986  0.59422441  0.13678926     0.11800
H2111       H  0.73838513  0.58841197  0.15579682     0.08400
H2112       H  0.73440806  0.61573587  0.17740487     0.11200
C2113       C  0.76592581  0.76010168  0.22963058    -0.03400
C2114       C  0.78241456  0.75038450  0.22282868    -0.06000
C2115       C  0.79982995  0.76028425  0.22023147    -0.21100
C2116       C  0.80093619  0.78019703  0.22370903     0.24600
C2117       C  0.78437715  0.79004314  0.23014591    -0.18700
C2118       C  0.76707498  0.78002885  0.23329345    -0.08700
C2119       C  0.81983380  0.79011025  0.22212926    -0.18900
C2120       C  0.82170709  0.80806876  0.21485748    -0.23700
C2121       C  0.84025444  0.81880280  0.21546642     0.26600
C2122       C  0.84482038  0.83200304  0.20061229    -0.20500
C2123       C  0.86143380  0.84352964  0.20192073    -0.10100
C2124       C  0.87344970  0.84240525  0.21840520    -0.10700
C2125       C  0.86897495  0.82896111  0.23310035    -0.03600
C2126       C  0.85264946  0.81722077  0.23160450    -0.18700
H2127       H  0.78197820  0.73500284  0.21999365     0.10400
H2128       H  0.81247606  0.75238770  0.21548480     0.10400
H2129       H  0.78498132  0.80534670  0.23333617     0.10100
H2130       H  0.75458149  0.78786393  0.23851071     0.11200
H2131       H  0.83259482  0.78226772  0.22687901     0.11300
H2132       H  0.80927017  0.81514411  0.20832863     0.13200
H2133       H  0.83538272  0.83355532  0.18810830     0.09700
H2134       H  0.86445906  0.85381669  0.19042363     0.11800
H2135       H  0.87795157  0.82771585  0.24597757     0.08400
H2136       H  0.84931122  0.80749730  0.24350022     0.11200
C2137       C  0.70573404  0.74977168  0.26667948    -0.03400
C2138       C  0.68619368  0.74428582  0.26635786    -0.06000
C2139       C  0.67414014  0.74836366  0.28218222    -0.21100
C2140       C  0.68146085  0.75756027  0.29884679     0.24600
C2141       C  0.70089481  0.76351855  0.29896921    -0.18700
C2142       C  0.71286320  0.75974706  0.28300629    -0.08700
C2143       C  0.66859502  0.76036052  0.31595652    -0.18900
C2144       C  0.67519609  0.75966876  0.33441551    -0.23700
C2145       C  0.66231704  0.75954096  0.35170216     0.26600
C2146       C  0.66790940  0.74868264  0.36801901    -0.20500
C2147       C  0.65579801  0.74716217  0.38418614    -0.10100
C2148       C  0.63807625  0.75697097  0.38464959    -0.10700
C2149       C  0.63279808  0.76863020  0.36874827    -0.03600
C2150       C  0.64474324  0.76976331  0.35228007    -0.18700
H2151       H  0.68024555  0.73674834  0.25390052     0.10400
H2152       H  0.65918438  0.74379353  0.28164678     0.10400
H2153       H  0.70688768  0.77109816  0.31136498     0.10100
H2154       H  0.72784624  0.76419634  0.28367032     0.11200
H2155       H  0.65312915  0.76099665  0.31335254     0.11300
H2156       H  0.69044086  0.75696803  0.33697890     0.13200
H2157       H  0.68143012  0.74081283  0.36799730     0.09700
H2158       H  0.66019169  0.73812436  0.39630188     0.11800
H2159       H  0.61913630  0.77624275  0.36876219     0.08400
H2160       H  0.64023364  0.77858455  0.34006403     0.11200
C2161       C  0.25318729  0.75724682  0.20405252    -0.03400
C2162       C  0.26904384  0.76946979  0.20762614    -0.06000
C2163       C  0.27280059  0.78529259  0.19544859    -0.21100
C2164       C  0.26100447  0.78918717  0.17924904     0.24600
C2165       C  0.24509644  0.77698877  0.17568861    -0.18700
C2166       C  0.24128134  0.76123286  0.18791045    -0.08700
C2167       C  0.26509777  0.80664944  0.16712634    -0.18900
C2168       C  0.25896693  0.80876255  0.14856861    -0.23700
C2169       C  0.26115502  0.82685538  0.13693871     0.26600
C2170       C  0.24821434  0.83003155  0.12151948    -0.20500
C2171       C  0.24844676  0.84738425  0.11113777    -0.10100
C2172       C  0.26190578  0.86191442  0.11563557    -0.10700
C2173       C  0.27570213  0.85836616  0.13022360    -0.03600
C2174       C  0.27528699  0.84102245  0.14088107    -0.18700
H2175       H  0.27847091  0.76696111  0.21997246     0.10400
H2176       H  0.28500346  0.79454811  0.19870464     0.10400
H2177       H  0.23520157  0.77978261  0.16381519     0.10100
H2178       H  0.22885565  0.75225689  0.18476117     0.11200
H2179       H  0.27322503  0.81819337  0.17397765     0.11300
H2180       H  0.25100371  0.79708345  0.14174788     0.13200
H2181       H  0.23735431  0.81932375  0.11794858     0.09700
H2182       H  0.23773577  0.84964026  0.09984221     0.11800
H2183       H  0.28623225  0.86932601  0.13397240     0.08400
H2184       H  0.28591691  0.83889441  0.15223235     0.11200
C2185       C  0.09997452  0.62350189  0.21761438    -0.03400
C2186       C  0.11428942  0.61875936  0.20394245    -0.06000
C2187       C  0.13182991  0.62890941  0.20357099    -0.21100
C2188       C  0.13511186  0.64436891  0.21639876     0.24600
C2189       C  0.12061888  0.64935046  0.22978898    -0.18700
C2190       C  0.10333388  0.63891703  0.23049836    -0.08700
C2191       C  0.15410938  0.65438997  0.21644409    -0.18900
C2192       C  0.15583835  0.67348728  0.21975802    -0.23700
C2193       C  0.17477255  0.68352655  0.22075265     0.26600
C2194       C  0.17642514  0.70237908  0.21341348    -0.20500
C2195       C  0.19383415  0.71255318  0.21502621    -0.10100
C2196       C  0.20979611  0.70428324  0.22457475    -0.10700
C2197       C  0.20807245  0.68543774  0.23208498    -0.03600
C2198       C  0.19079705  0.67509016  0.23003715    -0.18700
H2199       H  0.11216316  0.60683266  0.19397064     0.10400
H2200       H  0.14286310  0.62469802  0.19324709     0.10400
H2201       H  0.12287517  0.66091919  0.24014586     0.10100
H2202       H  0.09257935  0.64287708  0.24121496     0.11200
H2203       H  0.16691048  0.64595640  0.21309828     0.11300
H2204       H  0.14289125  0.68224495  0.22110688     0.13200
H2205       H  0.16420132  0.70923593  0.20637726     0.09700
H2206       H  0.19464707  0.72707770  0.20920727     0.11800
H2207       H  0.22009685  0.67867098  0.23953733     0.08400
H2208       H  0.18979991  0.66072429  0.23621285     0.11200
C2209       C  0.34037863  0.71640547  0.37687401    -0.03400
C2210       C  0.32505735  0.72945425  0.37423840    -0.06000
C2211       C  0.31203904  0.72712574  0.35886094    -0.21100
C2212       C  0.31438845  0.71207983  0.34543931     0.24600
C2213       C  0.32948089  0.69875948  0.34818786    -0.18700
C2214       C  0.34225069  0.70078728  0.36393627    -0.08700
C2215       C  0.30098719  0.71091716  0.32862733    -0.18900
C2216       C  0.30710153  0.70713514  0.31042842    -0.23700
C2217       C  0.29428332  0.70946393  0.29322465     0.26600
C2218       C  0.30180985  0.71741458  0.27601802    -0.20500
C2219       C  0.28974913  0.72115519  0.26006026    -0.10100
C2220       C  0.27001332  0.71647547  0.26082000    -0.10700
C2221       C  0.26266597  0.70773387  0.27777098    -0.03600
C2222       C  0.27463462  0.70440113  0.29387237    -0.18700
H2223       H  0.32316119  0.74152975  0.38406663     0.10400
H2224       H  0.30043629  0.73747680  0.35707934     0.10400
H2225       H  0.33138132  0.68682805  0.33818964     0.10100
H2226       H  0.35391996  0.69050990  0.36564551     0.11200
H2227       H  0.28621317  0.71570532  0.33086794     0.11300
H2228       H  0.32236565  0.70451125  0.30789119     0.13200
H2229       H  0.31693885  0.72131100  0.27515177     0.09700
H2230       H  0.29585527  0.72772555  0.24713379     0.11800
H2231       H  0.24753112  0.70391680  0.27878151     0.08400
H2232       H  0.26851520  0.69789033  0.30681829     0.11200
C2233       C  0.76762078  0.75252739  0.70535457    -0.03400
C2234       C  0.75930327  0.76166339  0.68908694    -0.06000
C2235       C  0.76972944  0.76368017  0.67179284    -0.21100
C2236       C  0.78884071  0.75714253  0.67057051     0.24600
C2237       C  0.79739759  0.74843554  0.68695676    -0.18700
C2238       C  0.78680891  0.74599501  0.70414588    -0.08700
C2239       C  0.79887624  0.75802577  0.65156560    -0.18900
C2240       C  0.81792621  0.76135842  0.64977423    -0.23700
C2241       C  0.82763266  0.76076427  0.63055299     0.26600
C2242       C  0.84248325  0.77389052  0.62618834    -0.20500
C2243       C  0.85205236  0.77303636  0.60821165    -0.10100
C2244       C  0.84730187  0.75861495  0.59464154    -0.10700
C2245       C  0.83251711  0.74544479  0.59912497    -0.03600
C2246       C  0.82269533  0.74658344  0.61680825    -0.18700
H2247       H  0.74450472  0.76669806  0.68950344     0.10400
H2248       H  0.76280658  0.77024426  0.65926360     0.10400
H2249       H  0.81199210  0.74287370  0.68625897     0.10100
H2250       H  0.79357867  0.73886420  0.71643704     0.11200
H2251       H  0.79012830  0.75633070  0.63851292     0.11300
H2252       H  0.82646181  0.76503068  0.66254159     0.13200
H2253       H  0.84662181  0.78481992  0.63667299     0.09700
H2254       H  0.86356163  0.78320177  0.60518933     0.11800
H2255       H  0.82861849  0.73413147  0.58896171     0.08400
H2256       H  0.81160137  0.73600260  0.61995527     0.11200
C2257       C  0.75399086  0.71390719  0.76412850    -0.03400
C2258       C  0.76657525  0.69916608  0.75802130    -0.06000
C2259       C  0.77026029  0.68320791  0.77003049    -0.21100
C2260       C  0.76150159  0.68161793  0.78839790     0.24600
C2261       C  0.74959532  0.69683297  0.79483644    -0.18700
C2262       C  0.74572898  0.71263664  0.78275462    -0.08700
C2263       C  0.76467710  0.66375816  0.80018162    -0.18900
C2264       C  0.75194056  0.65768828  0.81369028    -0.23700
C2265       C  0.75292081  0.63892754  0.82425069     0.26600
C2266       C  0.73590950  0.63229141  0.83301221    -0.20500
C2267       C  0.73543809  0.61465782  0.84272464    -0.10100
C2268       C  0.75206738  0.60309761  0.84418414    -0.10700
C2269       C  0.76936996  0.60987372  0.83591386    -0.03600
C2270       C  0.76980749  0.62764460  0.82595440    -0.18700
H2271       H  0.77324773  0.69972842  0.74377616     0.10400
H2272       H  0.77963092  0.67183879  0.76475023     0.10400
H2273       H  0.74322236  0.69671588  0.80919839     0.10100
H2274       H  0.73628649  0.72392540  0.78806717     0.11200
H2275       H  0.77685850  0.65465709  0.79640019     0.11300
H2276       H  0.73900311  0.66616106  0.81614290     0.13200
H2277       H  0.72272878  0.64068662  0.83210862     0.09700
H2278       H  0.72188046  0.61008906  0.84908854     0.11800
H2279       H  0.78243807  0.60133248  0.83687622     0.08400
H2280       H  0.78332897  0.63246676  0.81977067     0.11200
C2281       C  0.59993346  0.84661696  0.74930489    -0.03400
C2282       C  0.61341580  0.85192751  0.76364453    -0.06000
C2283       C  0.63122311  0.84233079  0.76498705    -0.21100
C2284       C  0.63555036  0.82688935  0.75246085     0.24600
C2285       C  0.62181952  0.82133157  0.73844155    -0.18700
C2286       C  0.60429715  0.83118852  0.73679531    -0.08700
C2287       C  0.65478999  0.81739976  0.75340339    -0.18900
C2288       C  0.65706879  0.79838700  0.74998625    -0.23700
C2289       C  0.67613093  0.78859422  0.74961985     0.26600
C2290       C  0.67732696  0.76925092  0.75561748    -0.20500
C2291       C  0.69466454  0.75903071  0.75400069    -0.10100
C2292       C  0.71102577  0.76777782  0.74574713    -0.10700
C2293       C  0.70989304  0.78719005  0.73978773    -0.03600
C2294       C  0.69265632  0.79758651  0.74189185    -0.18700
H2295       H  0.61048195  0.86393077  0.77329853     0.10400
H2296       H  0.64165411  0.84698146  0.77578316     0.10400
H2297       H  0.62487191  0.80979198  0.72827381     0.10100
H2298       H  0.59418351  0.82686003  0.72555968     0.11200
H2299       H  0.66720798  0.82611849  0.75746121     0.11300
H2300       H  0.64435248  0.78941520  0.74789765     0.13200
H2301       H  0.66473164  0.76197222  0.76142361     0.09700
H2302       H  0.69506615  0.74405014  0.75854999     0.11800
H2303       H  0.72229824  0.79427054  0.73335692     0.08400
H2304       H  0.69206103  0.81237104  0.73676635     0.11200
loop_ 
_geom_bond_atom_site_label_1 
_geom_bond_atom_site_label_2 
_geom_bond_distance 
_geom_bond_site_symmetry_2 
_ccdc_geom_bond_type 
C1            N2   1.358       .  A
C1            N6   1.360       .  A
C1         C2292   1.481       .  S
N2            C3   1.360       .  A
C3            N4   1.359       .  A
C3         C2233   1.481       .  S
N4            C5   1.359       .  A
C5            N6   1.361       .  A
C5         C2257   1.484       .  S
C7            N8   1.362       .  A
C7           N12   1.362       .  A
C7         C2161   1.490       .  S
N8            C9   1.361       .  A
C9           N10   1.359       .  A
C9         C2220   1.483       .  S
N10          C11   1.359       .  A
C11          N12   1.360       .  A
C11        C2196   1.485       .  S
C13          N14   1.362       .  A
C13          N18   1.362       .  A
C13        C2137   1.483       .  S
N14          C15   1.359       .  A
C15          N16   1.356       .  A
C15        C2113   1.480       .  S
N16          C17   1.358       .  A
C17          N18   1.360       .  A
C17        C2089   1.486       .  S
C19          N20   1.361       .  A
C19          N24   1.361       .  A
C19        C2076   1.490       .  S
N20          C21   1.362       .  A
C21          N22   1.360       .  A
C21        C2041   1.489       .  S
N22          C23   1.361       .  A
C23          N24   1.360       .  A
C23        C2028   1.489       .  S
C25          N26   1.357       .  A
C25          N30   1.360       .  A
C25        C1945   1.484       .  S
N26          C27   1.358       .  A
C27          N28   1.361       .  A
C27        C1969   1.487       .  S
N28          C29   1.364       .  A
C29          N30   1.362       .  A
C29        C1993   1.488       .  S
C31          N32   1.362       .  A
C31          N36   1.361       .  A
C31        C1921   1.485       .  S
N32          C33   1.360       .  A
C33          N34   1.357       .  A
C33        C1873   1.484       .  S
N34          C35   1.356       .  A
C35          N36   1.358       .  A
C35        C1897   1.478       .  S
C37          N38   1.362       .  A
C37          N42   1.361       .  A
C37        C1801   1.484       .  S
N38          C39   1.360       .  A
C39          N40   1.357       .  A
C39        C1849   1.480       .  S
N40          C41   1.359       .  A
C41          N42   1.359       .  A
C41        C1836   1.486       .  S
O43         Mg45   2.129       .  S
O43         Mg51   2.158       .  S
O43          C78   1.237       .  S
C44          O57   1.238       .  S
C44          O81   1.272       .  A
C44          H83   1.081       .  S
Mg45         O74   2.145   1_556  S
Mg45         O89   2.280       .  S
Mg45         O85   2.246   1_455  S
Mg45         O56   2.292   1_455  S
O46         Mg88   2.160       .  S
O46         Mg71   2.144       .  S
O46          C67   1.238       .  S
O47          C78   1.270   1_565  A
O47         Mg71   2.291   1_556  S
C48        C1777   1.483       .  S
C48          O50   1.276       .  A
C48          O62   1.276       .  A
O49          C77   1.271       .  A
O49         Mg51   2.298   1_554  S
O50         Mg82   2.281       .  S
Mg51         O57   2.143   1_556  S
Mg51         O65   2.304       .  S
Mg51         O53   2.347       .  S
C52        C1764   1.487       .  S
C52          O90   1.272       .  A
C52          O58   1.280   1_655  A
O53          C60   1.282   1_545  A
H54          C67   1.081       .  S
C55          O69   1.237       .  S
C55          O70   1.270       .  A
C55          H80   1.081       .  S
O56          C79   1.271   1_556  A
O57         Mg71   2.148   1_545  S
O58         Mg88   2.344       .  S
C59        C1681   1.480       .  S
C59          O72   1.274       .  A
C59          O64   1.274       .  A
C60        C1668   1.490       .  S
C60          O87   1.273       .  A
Mg61         O68   2.131       .  S
Mg61         O69   2.142   1_655  S
Mg61         O62   2.303       .  S
Mg61         O63   2.299   1_645  S
Mg61         O90   2.247   1_545  S
O63          C67   1.272       .  A
O64         Mg71   2.286       .  S
O65          C84   1.278       .  A
O66          C86   1.279   1_554  A
O66         Mg82   2.337       .  S
O68         Mg82   2.157       .  S
O68          C79   1.239       .  S
O69         Mg88   2.133   1_545  S
O70         Mg82   2.297   1_455  S
Mg71         O87   2.258   1_554  S
O72         Mg88   2.280       .  S
H73          C78   1.081       .  S
O74         Mg82   2.138   1_455  S
O74          C77   1.237       .  S
H75          C77   1.081       .  S
H76          C79   1.081       .  S
O81         Mg88   2.302   1_545  S
C84        C1729   1.485       .  S
C84          O89   1.274       .  A
O85          C86   1.271       .  A
C86        C1716   1.485       .  S
C91          N92   1.366       .  A
C91          N96   1.363       .  A
C91        C1633   1.489       .  S
N92          C93   1.364       .  A
C93          N94   1.357       .  A
C93        C1620   1.488       .  S
N94          C95   1.355       .  A
C95          N96   1.359       .  A
C95        C1740   1.484       .  S
C97          N98   1.360       .  A
C97         N102   1.365       .  A
C97        C1585   1.488       .  S
N98          C99   1.356       .  A
C99         N100   1.355       .  A
C99        C1788   1.477       .  S
N100        C101   1.360       .  A
C101        N102   1.364       .  A
C101       C1980   1.489       .  S
C103        N104   1.367       .  A
C103        N108   1.364       .  A
C103       C1572   1.490       .  S
N104        C105   1.363       .  A
C105        N106   1.355       .  A
C105       C2172   1.482       .  S
N106        C107   1.354       .  A
C107        N108   1.359       .  A
C107       C1692   1.479       .  S
O109       Mg111   2.143       .  S
O109       Mg117   2.155       .  S
O109        C144   1.239       .  S
C110        O123   1.236       .  S
C110        O147   1.271       .  A
C110        H149   1.081       .  S
Mg111       O140   2.142       .  S
Mg111       O155   2.301       .  S
Mg111       O151   2.256       .  S
Mg111       O122   2.297       .  S
O112       Mg154   2.163       .  S
O112       Mg137   2.135       .  S
O112        C133   1.238       .  S
O113        C144   1.272       .  A
O113       Mg137   2.301       .  S
C114       C1537   1.486       .  S
C114        O116   1.276       .  A
C114        O128   1.274       .  A
O115        C143   1.271       .  A
O115       Mg117   2.300       .  S
O116       Mg148   2.290       .  S
Mg117       O123   2.141       .  S
Mg117       O131   2.279       .  S
Mg117       O119   2.328       .  S
C118       C1513   1.490       .  S
C118        O156   1.271       .  A
C118        O124   1.281       .  A
O119        C126   1.278       .  A
H120        C133   1.081       .  S
C121        O135   1.237       .  S
C121        O136   1.271       .  A
C121        H146   1.081       .  S
O122        C145   1.271       .  A
O123       Mg137   2.140       .  S
O124       Mg154   2.352       .  S
C125       C1441   1.487       .  S
C125        O138   1.277       .  A
C125        O130   1.274       .  A
C126       C1417   1.484   1_655  S
C126        O153   1.271       .  A
Mg127       O134   2.140       .  S
Mg127       O135   2.143       .  S
Mg127       O128   2.287       .  S
Mg127       O129   2.294       .  S
Mg127       O156   2.241       .  S
O129        C133   1.271       .  A
O130       Mg137   2.282       .  S
O131        C150   1.274   1_655  A
O132        C152   1.281       .  A
O132       Mg148   2.347       .  S
O134       Mg148   2.155       .  S
O134        C145   1.238       .  S
O135       Mg154   2.144       .  S
O136       Mg148   2.302       .  S
Mg137       O153   2.251       .  S
O138       Mg154   2.303       .  S
H139        C144   1.081   1_455  S
O140       Mg148   2.140       .  S
O140        C143   1.237       .  S
H141        C143   1.081       .  S
H142        C145   1.081       .  S
O147       Mg154   2.302       .  S
C150       C1489   1.485       .  S
C150        O155   1.276   1_455  A
O151        C152   1.273       .  A
C152       C1465   1.490       .  S
C157        N158   1.365       .  A
C157        N162   1.359       .  A
C157       C1404   1.489       .  S
N158        C159   1.365       .  A
C159        N160   1.361       .  A
C159       C2004   1.490       .  S
N160        C161   1.356       .  A
C161        N162   1.356       .  A
C161       C1548   1.487       .  S
C163        N164   1.359       .  A
C163        N168   1.364       .  A
C163       C1380   1.490       .  S
N164        C165   1.358       .  A
C165        N166   1.358       .  A
C165       C1500   1.487       .  S
N166        C167   1.360       .  A
C167        N168   1.364       .  A
C167       C2185   1.483       .  S
C169        N170   1.362       .  A
C169        N174   1.364       .  A
C169       C1356   1.488       .  S
N170        C171   1.360       .  A
C171        N172   1.355       .  A
C171       C1452   1.486       .  S
N172        C173   1.356       .  A
C173        N174   1.362       .  A
C173       C2244   1.478       .  S
O175       Mg177   2.131       .  S
O175       Mg183   2.143   1_455  S
O175        C210   1.237       .  S
C176        O189   1.238       .  S
C176        O213   1.273       .  A
C176        H215   1.081       .  S
Mg177       O206   2.139       .  S
Mg177       O221   2.293   1_455  S
Mg177       O217   2.241       .  S
Mg177       O188   2.301       .  S
O178       Mg220   2.136   1_565  S
O178       Mg203   2.118       .  S
O178        C199   1.236       .  S
O179        C210   1.271       .  A
O179       Mg203   2.299       .  S
C180       C1297   1.484       .  S
C180        O182   1.275       .  A
C180        O194   1.273       .  A
O181        C209   1.274       .  A
O181       Mg183   2.313       .  S
O182       Mg214   2.302       .  S
Mg183       O189   2.155       .  S
Mg183       O197   2.296       .  S
Mg183       O185   2.349       .  S
C184       C1332   1.478       .  S
C184        O222   1.270       .  A
C184        O190   1.277       .  A
O185        C192   1.279       .  A
H186        C199   1.081       .  S
C187        O201   1.238       .  S
C187        O202   1.274       .  A
C187        H212   1.081   1_565  S
O188        C211   1.271       .  A
O189       Mg203   2.136   1_655  S
O190       Mg220   2.332       .  S
C191       C1596   1.481       .  S
C191        O204   1.274   1_655  A
C191        O196   1.273   1_545  A
C192       C1249   1.476       .  S
C192        O219   1.268       .  A
Mg193       O200   2.129       .  S
Mg193       O201   2.141       .  S
Mg193       O194   2.287       .  S
Mg193       O195   2.294       .  S
Mg193       O222   2.233   1_565  S
O195        C199   1.270       .  A
O196       Mg203   2.294   1_655  S
O197        C216   1.275       .  A
O198        C218   1.278       .  A
O198       Mg214   2.339       .  S
O200       Mg214   2.139       .  S
O200        C211   1.237       .  S
O201       Mg220   2.154   1_565  S
O202       Mg214   2.312       .  S
Mg203       O219   2.214   1_455  S
O204       Mg220   2.289       .  S
H205        C210   1.081       .  S
O206       Mg214   2.158       .  S
O206        C209   1.238   1_455  S
H207        C209   1.081       .  S
H208        C211   1.081       .  S
O213       Mg220   2.311   1_665  S
C216       C1345   1.486       .  S
C216        O221   1.274       .  A
O217        C218   1.270       .  A
C218       C1284   1.474       .  S
C223        N224   1.361       .  A
C223        N228   1.362       .  A
C223       C1428   1.482       .  S
N224        C225   1.358       .  A
C225        N226   1.356       .  A
C225       C1273   1.475       .  S
N226        C227   1.358       .  A
C227        N228   1.360       .  A
C227       C1812   1.476       .  S
C229        N230   1.366       .  A
C229        N234   1.360       .  A
C229       C1225   1.490       .  S
N230        C231   1.365       .  A
C231        N232   1.360       .  A
C231       C2052   1.488       .  S
N232        C233   1.355       .  A
C233        N234   1.357       .  A
C233       C1321   1.486       .  S
C235        N236   1.362       .  A
C235        N240   1.364       .  A
C235       C1753   1.489       .  S
N236        C237   1.359       .  A
C237        N238   1.355       .  A
C237       C1260   1.482       .  S
N238        C239   1.356       .  A
C239        N240   1.361       .  A
C239       C2124   1.482       .  S
O241       Mg243   2.142       .  S
O241       Mg249   2.154       .  S
O241        C276   1.238       .  S
C242        O255   1.237       .  S
C242        O279   1.271       .  A
C242        H281   1.081       .  S
Mg243       O272   2.141       .  S
Mg243       O287   2.293       .  S
Mg243       O283   2.254       .  S
Mg243       O254   2.297       .  S
O244       Mg286   2.158       .  S
O244       Mg269   2.128       .  S
O244        C265   1.237       .  S
O245        C276   1.272       .  A
O245       Mg269   2.300       .  S
C246       C1116   1.475       .  S
C246        O248   1.275       .  A
C246        O260   1.274       .  A
O247        C275   1.271       .  A
O247       Mg249   2.302       .  S
O248       Mg280   2.280       .  S
Mg249       O255   2.137       .  S
Mg249       O263   2.271       .  S
Mg249       O251   2.340       .  S
C250       C1092   1.486   1_556  S
C250        O288   1.273       .  A
C250        O256   1.279       .  A
O251        C258   1.278       .  A
H252        C265   1.081   1_554  S
C253        O267   1.237       .  S
C253        O268   1.270       .  A
C253        H278   1.081       .  S
O254        C277   1.271       .  A
O255       Mg269   2.137       .  S
O256       Mg286   2.332       .  S
C257       C1164   1.481       .  S
C257        O270   1.274   1_554  A
C257        O262   1.273   1_554  A
C258       C1129   1.480       .  S
C258        O285   1.270       .  A
Mg259       O266   2.140       .  S
Mg259       O267   2.144       .  S
Mg259       O260   2.280       .  S
Mg259       O261   2.293       .  S
Mg259       O288   2.256       .  S
O261        C265   1.271       .  A
O262       Mg269   2.275       .  S
O263        C282   1.274       .  A
O264        C284   1.281       .  A
O264       Mg280   2.350       .  S
O266       Mg280   2.161       .  S
O266        C277   1.237       .  S
O267       Mg286   2.136       .  S
O268       Mg280   2.298       .  S
Mg269       O285   2.242       .  S
O270       Mg286   2.284       .  S
H271        C276   1.081       .  S
O272       Mg280   2.140       .  S
O272        C275   1.237       .  S
H273        C275   1.081       .  S
H274        C277   1.081       .  S
O279       Mg286   2.301       .  S
C282       C1201   1.482       .  S
C282        O287   1.275       .  A
O283        C284   1.272       .  A
C284       C1188   1.490       .  S
C289        N290   1.358       .  A
C289        N294   1.364       .  A
C289       C1068   1.492       .  S
N290        C291   1.358       .  A
C291        N292   1.358       .  A
C291       C1212   1.487       .  S
N292        C293   1.360       .  A
C293        N294   1.365       .  A
C293       C1033   1.480       .  S
C295        N296   1.356       .  A
C295        N300   1.361       .  A
C295       C1009   1.480       .  S
N296        C297   1.356       .  A
C297        N298   1.358       .  A
C297       C1153   1.483       .  S
N298        C299   1.361       .  A
C299        N300   1.363       .  A
C299       C1956   1.476       .  S
C301        N302   1.367       .  A
C301        N306   1.364       .  A
C301        C996   1.489       .  S
N302        C303   1.363       .  A
C303        N304   1.355       .  A
C303       C2268   1.485       .  S
N304        C305   1.352       .  A
C305        N306   1.358       .  A
C305       C1105   1.481       .  S
O307       Mg309   2.131       .  S
O307       Mg315   2.140       .  S
O307        C342   1.237       .  S
C308        O321   1.238       .  S
C308        O345   1.272   1_554  A
C308        H347   1.081   1_554  S
Mg309       O338   2.140       .  S
Mg309       O353   2.306       .  S
Mg309       O349   2.235       .  S
Mg309       O320   2.302       .  S
O310       Mg352   2.149   1_554  S
O310       Mg335   2.118       .  S
O310        C331   1.235       .  S
O311        C342   1.271       .  A
O311       Mg335   2.297       .  S
C312       C1644   1.489   1_654  S
C312        O314   1.276       .  A
C312        O326   1.272   1_554  A
O313        C341   1.274       .  A
O313       Mg315   2.314       .  S
O314       Mg346   2.310       .  S
Mg315       O321   2.158       .  S
Mg315       O329   2.291       .  S
Mg315       O317   2.349       .  S
C316        C924   1.477       .  S
C316        O354   1.270       .  A
C316        O322   1.279       .  A
O317        C324   1.279       .  A
H318        C331   1.081       .  S
C319        O333   1.238       .  S
C319        O334   1.273       .  A
C319        H344   1.081       .  S
O320        C343   1.271       .  A
O321       Mg335   2.141       .  S
O322       Mg352   2.347       .  S
C323        C985   1.488       .  S
C323        O336   1.276       .  A
C323        O328   1.274       .  A
C324        C948   1.478       .  S
C324        O351   1.269       .  A
Mg325       O332   2.130       .  S
Mg325       O333   2.150   1_554  S
Mg325       O326   2.272   1_554  S
Mg325       O327   2.286       .  S
Mg325       O354   2.228   1_554  S
O327        C331   1.267       .  A
O328       Mg335   2.284   1_556  S
O329        C348   1.275       .  A
O330        C350   1.278       .  A
O330       Mg346   2.332       .  S
O332       Mg346   2.151       .  S
O332        C343   1.237       .  S
O333       Mg352   2.157       .  S
O334       Mg346   2.306   1_556  S
Mg335       O351   2.225       .  S
O336       Mg352   2.303       .  S
H337        C342   1.081       .  S
O338       Mg346   2.161       .  S
O338        C341   1.238       .  S
H339        C341   1.081       .  S
H340        C343   1.081       .  S
O345       Mg352   2.306       .  S
C348       C1369   1.487       .  S
C348        O353   1.275       .  A
O349        C350   1.269       .  A
C350        C961   1.472   1_655  S
C355        N356   1.362       .  A
C355        N360   1.364       .  A
C355       C1081   1.486       .  S
N356        C357   1.359       .  A
C357        N358   1.354       .  A
C357        C937   1.484       .  S
N358        C359   1.358       .  A
C359        N360   1.362       .  A
C359       C2100   1.485       .  S
C361        N362   1.361       .  A
C361        N366   1.368       .  A
C361       C1476   1.489       .  S
N362        C363   1.355       .  A
C363        N364   1.352       .  A
C363        C972   1.473       .  S
N364        C365   1.358       .  A
C365        N366   1.367       .  A
C365       C2065   1.491       .  S
C367        N368   1.365       .  A
C367        N372   1.362       .  A
C367       C1705   1.490       .  S
N368        C369   1.363       .  A
C369        N370   1.355       .  A
C369       C1908   1.478       .  S
N370        C371   1.352       .  A
C371        N372   1.358       .  A
C371        C913   1.483       .  S
O373       Mg375   2.122       .  S
O373       Mg381   2.144       .  S
O373        C408   1.237       .  S
C374        O387   1.238   1_565  S
C374        O411   1.272       .  A
C374        H413   1.081       .  S
Mg375       O404   2.143       .  S
Mg375       O419   2.288       .  S
Mg375       O415   2.230       .  S
Mg375       O386   2.295       .  S
O376       Mg418   2.141       .  S
O376       Mg401   2.128   1_565  S
O376        C397   1.237   1_565  S
O377        C408   1.270       .  A
O377       Mg401   2.294       .  S
C378       C1561   1.490       .  S
C378        O380   1.275   1_565  A
C378        O392   1.275   1_554  A
O379        C407   1.273       .  A
O379       Mg381   2.306       .  S
O380       Mg412   2.304   1_554  S
Mg381       O387   2.147       .  S
Mg381       O395   2.283       .  S
Mg381       O383   2.322       .  S
C382        C817   1.474       .  S
C382        O420   1.269       .  A
C382        O388   1.279       .  A
O383        C390   1.276       .  A
H384        C397   1.081       .  S
C385        O399   1.239       .  S
C385        O400   1.275       .  A
C385        H410   1.081       .  S
O386        C409   1.270       .  A
O387       Mg401   2.140       .  S
O388       Mg418   2.347       .  S
C389        C841   1.488       .  S
C389        O402   1.278       .  A
C389        O394   1.275       .  A
C390        C865   1.478       .  S
C390        O417   1.271       .  A
Mg391       O398   2.126   1_565  S
Mg391       O399   2.142       .  S
Mg391       O392   2.298       .  S
Mg391       O393   2.300   1_565  S
Mg391       O420   2.225       .  S
O393        C397   1.271       .  A
O394       Mg401   2.294   1_565  S
O395        C414   1.273       .  A
O396        C416   1.280       .  A
O396       Mg412   2.352   1_554  S
O398       Mg412   2.141       .  S
O398        C409   1.236       .  S
O399       Mg418   2.174       .  S
O400       Mg412   2.319   1_565  S
Mg401       O417   2.242       .  S
O402       Mg418   2.317       .  S
H403        C408   1.081       .  S
O404       Mg412   2.150       .  S
O404        C407   1.239       .  S
H405        C407   1.081       .  S
H406        C409   1.081       .  S
O411       Mg418   2.307       .  S
C414       C1020   1.485       .  S
C414        O419   1.274       .  A
O415        C416   1.270   1_556  A
C416        C889   1.482       .  S
C421        N422   1.362       .  A
C421        N426   1.358       .  A
C421        C804   1.487       .  S
N422        C423   1.364       .  A
C423        N424   1.361       .  A
C423       C1884   1.485       .  S
N424        C425   1.355       .  A
C425        N426   1.355       .  A
C425        C876   1.483       .  S
C427        N428   1.359       .  A
C427        N432   1.363       .  A
C427       C1140   1.487       .  S
N428        C429   1.356       .  A
C429        N430   1.356       .  A
C429        C900   1.485       .  S
N430        C431   1.360       .  A
C431        N432   1.364       .  A
C431       C2017   1.485       .  S
C433        N434   1.364       .  A
C433        N438   1.366       .  A
C433       C1657   1.489       .  S
N434        C435   1.358       .  A
C435        N436   1.352       .  A
C435        C828   1.481       .  S
N436        C437   1.356       .  A
C437        N438   1.363       .  A
C437       C1825   1.485       .  S
O439       Mg441   2.126       .  S
O439       Mg447   2.130       .  S
O439        C474   1.237       .  S
C440        O453   1.238       .  S
C440        O477   1.273       .  A
C440        H479   1.081       .  S
Mg441       O470   2.146       .  S
Mg441       O485   2.306       .  S
Mg441       O481   2.220       .  S
Mg441       O452   2.296       .  S
O442       Mg484   2.146       .  S
O442       Mg467   2.127       .  S
O442        C463   1.235       .  S
O443        C474   1.270       .  A
O443       Mg467   2.298       .  S
C444       C1057   1.495       .  S
C444        O446   1.277       .  A
C444        O458   1.273       .  A
O445        C473   1.275       .  A
O445       Mg447   2.319       .  S
O446       Mg478   2.324       .  S
Mg447       O453   2.153       .  S
Mg447       O461   2.290       .  S
Mg447       O449   2.347       .  S
C448        C697   1.475       .  S
C448        O486   1.268       .  A
C448        O454   1.279       .  A
O449        C456   1.279       .  A
H450        C463   1.081       .  S
C451        O465   1.238       .  S
C451        O466   1.273       .  A
C451        H476   1.081       .  S
O452        C475   1.270       .  A
O453       Mg467   2.140       .  S
O454       Mg484   2.347       .  S
C455        C721   1.488       .  S
C455        O468   1.276       .  A
C455        O460   1.275       .  A
C456        C745   1.478       .  S
C456        O483   1.271       .  A
Mg457       O464   2.122       .  S
Mg457       O465   2.147       .  S
Mg457       O458   2.283       .  S
Mg457       O459   2.291       .  S
Mg457       O486   2.220       .  S
O459        C463   1.269       .  A
O460       Mg467   2.299       .  S
O461        C480   1.275       .  A
O462        C482   1.279       .  A
O462       Mg478   2.340       .  S
O464       Mg478   2.149       .  S
O464        C475   1.236       .  S
O465       Mg484   2.161       .  S
O466       Mg478   2.308       .  S
Mg467       O483   2.237       .  S
O468       Mg484   2.289       .  S
H469        C474   1.081       .  S
O470       Mg478   2.171       .  S
O470        C473   1.240       .  S
H471        C473   1.081       .  S
H472        C475   1.081       .  S
O477       Mg484   2.307       .  S
C480       C1393   1.487       .  S
C480        O485   1.275       .  A
O481        C482   1.269       .  A
C482        C780   1.480       .  S
C487        N488   1.362       .  A
C487        N492   1.364       .  A
C487        C684   1.491       .  S
N488        C489   1.359       .  A
C489        N490   1.355       .  A
C489        C756   1.483       .  S
N490        C491   1.357       .  A
C491        N492   1.362       .  A
C491       C2148   1.476       .  S
C493        N494   1.365       .  A
C493        N498   1.362       .  A
C493       C1177   1.488       .  S
N494        C495   1.364       .  A
C495        N496   1.358       .  A
C495       C1860   1.483       .  S
N496        C497   1.355       .  A
C497        N498   1.359       .  A
C497        C708   1.482       .  S
C499        N500   1.364       .  A
C499        N504   1.359       .  A
C499       C1524   1.486       .  S
N500        C501   1.364       .  A
C501        N502   1.358       .  A
C501       C1932   1.481       .  S
N502        C503   1.354       .  A
C503        N504   1.357       .  A
C503        C769   1.483       .  S
O505       Mg507   2.136       .  S
O505       Mg513   2.155       .  S
O505        C540   1.238       .  S
C506        O519   1.237       .  S
C506        O543   1.270       .  A
C506        H545   1.081       .  S
Mg507       O536   2.143       .  S
Mg507       O551   2.297   1_565  S
Mg507       O547   2.252       .  S
Mg507       O518   2.299       .  S
O508       Mg550   2.161       .  S
O508       Mg533   2.130       .  S
O508        C529   1.238       .  S
O509        C540   1.271       .  A
O509       Mg533   2.292       .  S
C510        C649   1.485       .  S
C510        O512   1.275       .  A
C510        O524   1.275       .  A
O511        C539   1.271       .  A
O511       Mg513   2.301       .  S
O512       Mg544   2.285       .  S
Mg513       O519   2.131       .  S
Mg513       O527   2.276   1_565  S
Mg513       O515   2.341   1_565  S
C514        C673   1.488       .  S
C514        O552   1.273       .  A
C514        O520   1.280       .  A
O515        C522   1.280       .  A
H516        C529   1.081       .  S
C517        O531   1.237       .  S
C517        O532   1.272       .  A
C517        H542   1.081       .  S
O518        C541   1.272       .  A
O519       Mg533   2.144       .  S
O520       Mg550   2.337       .  S
C521        C612   1.485       .  S
C521        O534   1.277       .  A
C521        O526   1.273       .  A
C522        C793   1.487       .  S
C522        O549   1.272   1_545  A
Mg523       O530   2.143       .  S
Mg523       O531   2.147       .  S
Mg523       O524   2.292       .  S
Mg523       O525   2.292       .  S
Mg523       O552   2.258       .  S
O525        C529   1.271       .  A
O526       Mg533   2.278       .  S
O527        C546   1.275       .  A
O528        C548   1.280       .  A
O528       Mg544   2.344       .  S
O530       Mg544   2.157       .  S
O530        C541   1.238       .  S
O531       Mg550   2.147       .  S
O532       Mg544   2.304       .  S
Mg533       O549   2.248       .  S
O534       Mg550   2.304       .  S
H535        C540   1.081   1_545  S
O536       Mg544   2.138       .  S
O536        C539   1.237       .  S
H537        C539   1.081       .  S
H538        C541   1.081       .  S
O543       Mg550   2.295       .  S
C546        C636   1.481       .  S
C546        O551   1.275       .  A
O547        C548   1.272       .  A
C548       C1236   1.489       .  S
C553        N554   1.362       .  A
C553        N558   1.359       .  A
C553        C732   1.487       .  S
N554        C555   1.363       .  A
C555        N556   1.360       .  A
C555       C2209   1.480       .  S
N556        C557   1.357       .  A
C557        N558   1.357       .  A
C557        C660   1.484       .  S
C559        N560   1.365       .  A
C559        N564   1.362       .  A
C559       C1308   1.489       .  S
N560        C561   1.363       .  A
C561        N562   1.358       .  A
C561        C577   1.485       .  S
N562        C563   1.354       .  A
C563        N564   1.357       .  A
C563        C625   1.480       .  S
C565        N566   1.365       .  A
C565        N570   1.362       .  A
C565        C852   1.490       .  S
N566        C567   1.363       .  A
C567        N568   1.357       .  A
C567       C2281   1.480       .  S
N568        C569   1.356       .  A
C569        N570   1.360       .  A
C569        C601   1.485       .  S
C571        N572   1.359       .  A
C571        N576   1.357       .  A
C571       C1044   1.486       .  S
N572        C573   1.362       .  A
C573        N574   1.363       .  A
C573       C1609   1.485       .  S
N574        C575   1.363       .  A
C575        N576   1.360       .  A
C575        C588   1.489       .  S
C577        C578   1.406       .  A
C577        C582   1.407       .  A
C578        H591   1.083       .  S
C578        C579   1.394       .  A
C579        H592   1.084       .  S
C579        C580   1.402       .  A
C580        C581   1.409       .  A
C580        C583   1.488       .  S
C581        H593   1.082       .  S
C581        C582   1.406       .  A
C582        H594   1.083       .  S
C583        C584   1.349       .  D
C583        H595   1.085       .  S
C584        C585   1.493       .  S
C584        H596   1.085       .  S
C585        C586   1.406       .  A
C585        C590   1.408       .  A
C586        H597   1.083       .  S
C586        C587   1.404       .  A
C587        H598   1.083       .  S
C587        C588   1.408       .  A
C588        C589   1.407       .  A
C589        H599   1.083       .  S
C589        C590   1.396       .  A
C590        H600   1.081       .  S
C601        C602   1.407       .  A
C601        C606   1.405       .  A
C602        H615   1.083       .  S
C602        C603   1.399       .  A
C603        H616   1.084       .  S
C603        C604   1.403       .  A
C604        C605   1.408       .  A
C604        C607   1.489       .  S
C605        H617   1.082       .  S
C605        C606   1.400       .  A
C606        H618   1.083       .  S
C607        C608   1.347       .  D
C607        H619   1.085       .  S
C608        C609   1.489       .  S
C608        H620   1.086       .  S
C609        C610   1.402       .  A
C609        C614   1.410       .  A
C610        H621   1.083       .  S
C610        C611   1.395       .  A
C611        H622   1.083       .  S
C611        C612   1.407       .  A
C612        C613   1.406       .  A
C613        H623   1.083       .  S
C613        C614   1.404       .  A
C614        H624   1.081       .  S
C625        C626   1.406       .  A
C625        C630   1.405       .  A
C626        H639   1.083       .  S
C626        C627   1.398       .  A
C627        H640   1.083       .  S
C627        C628   1.401       .  A
C628        C629   1.407       .  A
C628        C631   1.482       .  S
C629        H641   1.083       .  S
C629        C630   1.400       .  A
C630        H642   1.083       .  S
C631        C632   1.345       .  D
C631        H643   1.087       .  S
C632        C633   1.483       .  S
C632        H644   1.087       .  S
C633        C634   1.403       .  A
C633        C638   1.406       .  A
C634        H645   1.083       .  S
C634        C635   1.399       .  A
C635        H646   1.083       .  S
C635        C636   1.406       .  A
C636        C637   1.406       .  A
C637        H647   1.083       .  S
C637        C638   1.399       .  A
C638        H648   1.082       .  S
C649        C650   1.407       .  A
C649        C654   1.406       .  A
C650        H663   1.083       .  S
C650        C651   1.403       .  A
C651        H664   1.083       .  S
C651        C652   1.405       .  A
C652        C653   1.406       .  A
C652        C655   1.488       .  S
C653        H665   1.082       .  S
C653        C654   1.395       .  A
C654        H666   1.083       .  S
C655        C656   1.349       .  D
C655        H667   1.085       .  S
C656        C657   1.488       .  S
C656        H668   1.086       .  S
C657        C658   1.404       .  A
C657        C662   1.408       .  A
C658        H669   1.083       .  S
C658        C659   1.396       .  A
C659        H670   1.083       .  S
C659        C660   1.405       .  A
C660        C661   1.407       .  A
C661        H671   1.083       .  S
C661        C662   1.402       .  A
C662        H672   1.081       .  S
C673        C674   1.408       .  A
C673        C678   1.407       .  A
C674        H687   1.083       .  S
C674        C675   1.397       .  A
C675        H688   1.084       .  S
C675        C676   1.402       .  A
C676        C677   1.410       .  A
C676        C679   1.490       .  S
C677        H689   1.082       .  S
C677        C678   1.404       .  A
C678        H690   1.083       .  S
C679        C680   1.347       .  D
C679        H691   1.086       .  S
C680        C681   1.491       .  S
C680        H692   1.086       .  S
C681        C682   1.403       .  A
C681        C686   1.409       .  A
C682        H693   1.084       .  S
C682        C683   1.398       .  A
C683        H694   1.083       .  S
C683        C684   1.408       .  A
C684        C685   1.408       .  A
C685        H695   1.083       .  S
C685        C686   1.403       .  A
C686        H696   1.082       .  S
C697        C698   1.403       .  A
C697        C702   1.404       .  A
C698        H711   1.084       .  S
C698        C699   1.391       .  A
C699        H712   1.083       .  S
C699        C700   1.401       .  A
C700        C701   1.412       .  A
C700        C703   1.487       .  S
C701        H713   1.081       .  S
C701        C702   1.405       .  A
C702        H714   1.083       .  S
C703        C704   1.346       .  D
C703        H715   1.087       .  S
C704        C705   1.486       .  S
C704        H716   1.084       .  S
C705        C706   1.402       .  A
C705        C710   1.408       .  A
C706        H717   1.083       .  S
C706        C707   1.400       .  A
C707        H718   1.083       .  S
C707        C708   1.407       .  A
C708        C709   1.404       .  A
C709        H719   1.083       .  S
C709        C710   1.398       .  A
C710        H720   1.082       .  S
C721        C722   1.407       .  A
C721        C726   1.408       .  A
C722        H735   1.083       .  S
C722        C723   1.402       .  A
C723        H736   1.083       .  S
C723        C724   1.404       .  A
C724        C725   1.406       .  A
C724        C727   1.488       .  S
C725        H737   1.082       .  S
C725        C726   1.398       .  A
C726        H738   1.083       .  S
C727        C728   1.348       .  D
C727        H739   1.086       .  S
C728        C729   1.487       .  S
C728        H740   1.086       .  S
C729        C730   1.402       .  A
C729        C734   1.408       .  A
C730        H741   1.084       .  S
C730        C731   1.396       .  A
C731        H742   1.083       .  S
C731        C732   1.407       .  A
C732        C733   1.407       .  A
C733        H743   1.083       .  S
C733        C734   1.403       .  A
C734        H744   1.082       .  S
C745        C746   1.402       .  A
C745        C750   1.406       .  A
C746        H759   1.084       .  S
C746        C747   1.391       .  A
C747        H760   1.083       .  S
C747        C748   1.402       .  A
C748        C749   1.412       .  A
C748        C751   1.488       .  S
C749        H761   1.081       .  S
C749        C750   1.407       .  A
C750        H762   1.083       .  S
C751        C752   1.346       .  D
C751        H763   1.087       .  S
C752        C753   1.486       .  S
C752        H764   1.084       .  S
C753        C754   1.401       .  A
C753        C758   1.407       .  A
C754        H765   1.083       .  S
C754        C755   1.401       .  A
C755        H766   1.083       .  S
C755        C756   1.409       .  A
C756        C757   1.404       .  A
C757        H767   1.083       .  S
C757        C758   1.397       .  A
C758        H768   1.083       .  S
C769        C770   1.404       .  A
C769        C774   1.408       .  A
C770        H783   1.083       .  S
C770        C771   1.395       .  A
C771        H784   1.083       .  S
C771        C772   1.404       .  A
C772        C773   1.407       .  A
C772        C775   1.485       .  S
C773        H785   1.080       .  S
C773        C774   1.400       .  A
C774        H786   1.083       .  S
C775        C776   1.349       .  D
C775        H787   1.087       .  S
C776        C777   1.484       .  S
C776        H788   1.084       .  S
C777        C778   1.405       .  A
C777        C782   1.403       .  A
C778        H789   1.083       .  S
C778        C779   1.405       .  A
C779        H790   1.083       .  S
C779        C780   1.406       .  A
C780        C781   1.405       .  A
C781        H791   1.083       .  S
C781        C782   1.389       .  A
C782        H792   1.083       .  S
C793        C794   1.408       .  A
C793        C798   1.406       .  A
C794        H807   1.083       .  S
C794        C795   1.397       .  A
C795        H808   1.084       .  S
C795        C796   1.402       .  A
C796        C797   1.410       .  A
C796        C799   1.491       .  S
C797        H809   1.082       .  S
C797        C798   1.403       .  A
C798        H810   1.083       .  S
C799        C800   1.347       .  D
C799        H811   1.086       .  S
C800        C801   1.489       .  S
C800        H812   1.085       .  S
C801        C802   1.401       .  A
C801        C806   1.410       .  A
C802        H813   1.084       .  S
C802        C803   1.394       .  A
C803        H814   1.083       .  S
C803        C804   1.407       .  A
C804        C805   1.407       .  A
C805        H815   1.083       .  S
C805        C806   1.405       .  A
C806        H816   1.082       .  S
C817        C818   1.402       .  A
C817        C822   1.403       .  A
C818        H831   1.084       .  S
C818        C819   1.392       .  A
C819        H832   1.083       .  S
C819        C820   1.402       .  A
C820        C821   1.413       .  A
C820        C823   1.490       .  S
C821        H833   1.080       .  S
C821        C822   1.405       .  A
C822        H834   1.083       .  S
C823        C824   1.345       .  D
C823        H835   1.087       .  S
C824        C825   1.484       .  S
C824        H836   1.083       .  S
C825        C826   1.400       .  A
C825        C830   1.409       .  A
C826        H837   1.083       .  S
C826        C827   1.397       .  A
C827        H838   1.083       .  S
C827        C828   1.407       .  A
C828        C829   1.404       .  A
C829        H839   1.083       .  S
C829        C830   1.401       .  A
C830        H840   1.083       .  S
C841        C842   1.406       .  A
C841        C846   1.407       .  A
C842        H855   1.083       .  S
C842        C843   1.397       .  A
C843        H856   1.084       .  S
C843        C844   1.402       .  A
C844        C845   1.411       .  A
C844        C847   1.493       .  S
C845        H857   1.082       .  S
C845        C846   1.408       .  A
C846        H858   1.083       .  S
C847        C848   1.349       .  D
C847        H859   1.086       .  S
C848        C849   1.494       .  S
C848        H860   1.086       .  S
C849        C850   1.403       .  A
C849        C854   1.409       .  A
C850        H861   1.084       .  S
C850        C851   1.400       .  A
C851        H862   1.083       .  S
C851        C852   1.408       .  A
C852        C853   1.407       .  A
C853        H863   1.083       .  S
C853        C854   1.403       .  A
C854        H864   1.082       .  S
C865        C866   1.407       .  A
C865        C870   1.404       .  A
C866        H879   1.083       .  S
C866        C867   1.403       .  A
C867        H880   1.083       .  S
C867        C868   1.404       .  A
C868        C869   1.405       .  A
C868        C871   1.485       .  S
C869        H881   1.083       .  S
C869        C870   1.392       .  A
C870        H882   1.083       .  S
C871        C872   1.348       .  D
C871        H883   1.084       .  S
C872        C873   1.485       .  S
C872        H884   1.087       .  S
C873        C874   1.403       .  A
C873        C878   1.408       .  A
C874        H885   1.083       .  S
C874        C875   1.393       .  A
C875        H886   1.083       .  S
C875        C876   1.405       .  A
C876        C877   1.408       .  A
C877        H887   1.083       .  S
C877        C878   1.402       .  A
C878        H888   1.081       .  S
C889        C890   1.406       .  A
C889        C894   1.406       .  A
C890        H903   1.083       .  S
C890        C891   1.405       .  A
C891        H904   1.083       .  S
C891        C892   1.406       .  A
C892        C893   1.405       .  A
C892        C895   1.489       .  S
C893        H905   1.082       .  S
C893        C894   1.392       .  A
C894        H906   1.083       .  S
C895        C896   1.350       .  D
C895        H907   1.084       .  S
C896        C897   1.489       .  S
C896        H908   1.086       .  S
C897        C898   1.404       .  A
C897        C902   1.408       .  A
C898        H909   1.083       .  S
C898        C899   1.395       .  A
C899        H910   1.083       .  S
C899        C900   1.404       .  A
C900        C901   1.408       .  A
C901        H911   1.083       .  S
C901        C902   1.402       .  A
C902        H912   1.080       .  S
C913        C914   1.403       .  A
C913        C918   1.409       .  A
C914        H927   1.083       .  S
C914        C915   1.396       .  A
C915        H928   1.083       .  S
C915        C916   1.405       .  A
C916        C917   1.406       .  A
C916        C919   1.486       .  S
C917        H929   1.081       .  S
C917        C918   1.399       .  A
C918        H930   1.083       .  S
C919        C920   1.350       .  D
C919        H931   1.087       .  S
C920        C921   1.485       .  S
C920        H932   1.084       .  S
C921        C922   1.406       .  A
C921        C926   1.404       .  A
C922        H933   1.083       .  S
C922        C923   1.406       .  A
C923        H934   1.083       .  S
C923        C924   1.405       .  A
C924        C925   1.404       .  A
C925        H935   1.084       .  S
C925        C926   1.390       .  A
C926        H936   1.083       .  S
C937        C938   1.408       .  A
C937        C942   1.404       .  A
C938        H951   1.083       .  S
C938        C939   1.400       .  A
C939        H952   1.083       .  S
C939        C940   1.401       .  A
C940        C941   1.408       .  A
C940        C943   1.486       .  S
C941        H953   1.082       .  S
C941        C942   1.399       .  A
C942        H954   1.083       .  S
C943        C944   1.346       .  D
C943        H955   1.084       .  S
C944        C945   1.489       .  S
C944        H956   1.087       .  S
C945        C946   1.401       .  A
C945        C950   1.412       .  A
C946        H957   1.084       .  S
C946        C947   1.391       .  A
C947        H958   1.084       .  S
C947        C948   1.404       .  A
C948        C949   1.405       .  A
C949        H959   1.083       .  S
C949        C950   1.406       .  A
C950        H960   1.081       .  S
C961        C962   1.403       .  A
C961        C966   1.404       .  A
C962        H975   1.083   1_455  S
C962        C963   1.400       .  A
C963        H976   1.083       .  S
C963        C964   1.404       .  A
C964        C965   1.405       .  A
C964        C967   1.481       .  S
C965        H977   1.082       .  S
C965        C966   1.395       .  A
C966        H978   1.084       .  S
C967        C968   1.343       .  D
C967        H979   1.087       .  S
C968        C969   1.478       .  S
C968        H980   1.087       .  S
C969        C970   1.401       .  A
C969        C974   1.407       .  A
C970        H981   1.083       .  S
C970        C971   1.397       .  A
C971        H982   1.083       .  S
C971        C972   1.404       .  A
C972        C973   1.403       .  A
C973        H983   1.083       .  S
C973        C974   1.399       .  A
C974        H984   1.083       .  S
C985        C986   1.407       .  A
C985        C990   1.408       .  A
C986        H999   1.083       .  S
C986        C987   1.394       .  A
C987       H1000   1.084       .  S
C987        C988   1.400       .  A
C988        C989   1.409       .  A
C988        C991   1.486       .  S
C989       H1001   1.082       .  S
C989        C990   1.407       .  A
C990       H1002   1.083       .  S
C991        C992   1.346       .  D
C991       H1003   1.087       .  S
C992        C993   1.489       .  S
C992       H1004   1.086       .  S
C993        C994   1.404       .  A
C993        C998   1.406       .  A
C994       H1005   1.083       .  S
C994        C995   1.403       .  A
C995       H1006   1.083       .  S
C995        C996   1.408       .  A
C996        C997   1.408       .  A
C997       H1007   1.083       .  S
C997        C998   1.398       .  A
C998       H1008   1.083       .  S
C1009      C1010   1.405       .  A
C1009      C1014   1.405       .  A
C1010      H1023   1.083       .  S
C1010      C1011   1.394       .  A
C1011      H1024   1.084       .  S
C1011      C1012   1.402       .  A
C1012      C1013   1.409       .  A
C1012      C1015   1.484       .  S
C1013      H1025   1.082       .  S
C1013      C1014   1.403       .  A
C1014      H1026   1.083       .  S
C1015      C1016   1.347       .  D
C1015      H1027   1.086       .  S
C1016      C1017   1.487   1_554  S
C1016      H1028   1.085       .  S
C1017      C1018   1.405       .  A
C1017      C1022   1.406   1_556  A
C1018      H1029   1.083       .  S
C1018      C1019   1.403       .  A
C1019      H1030   1.083       .  S
C1019      C1020   1.407       .  A
C1020      C1021   1.406       .  A
C1021      H1031   1.083   1_556  S
C1021      C1022   1.394   1_556  A
C1022      H1032   1.082       .  S
C1033      C1034   1.404       .  A
C1033      C1038   1.405       .  A
C1034      H1047   1.083       .  S
C1034      C1035   1.399       .  A
C1035      H1048   1.083       .  S
C1035      C1036   1.403       .  A
C1036      C1037   1.408       .  A
C1036      C1039   1.487       .  S
C1037      H1049   1.083       .  S
C1037      C1038   1.404       .  A
C1038      H1050   1.083       .  S
C1039      C1040   1.347       .  D
C1039      H1051   1.087       .  S
C1040      C1041   1.487       .  S
C1040      H1052   1.087       .  S
C1041      C1042   1.403       .  A
C1041      C1046   1.406       .  A
C1042      H1053   1.083       .  S
C1042      C1043   1.401       .  A
C1043      H1054   1.083       .  S
C1043      C1044   1.406       .  A
C1044      C1045   1.408       .  A
C1045      H1055   1.083       .  S
C1045      C1046   1.402       .  A
C1046      H1056   1.083       .  S
C1057      C1058   1.409       .  A
C1057      C1062   1.409       .  A
C1058      H1071   1.083       .  S
C1058      C1059   1.395       .  A
C1059      H1072   1.084       .  S
C1059      C1060   1.401       .  A
C1060      C1061   1.410       .  A
C1060      C1063   1.492       .  S
C1061      H1073   1.082       .  S
C1061      C1062   1.411       .  A
C1062      H1074   1.083       .  S
C1063      C1064   1.349       .  D
C1063      H1075   1.087       .  S
C1064      C1065   1.495       .  S
C1064      H1076   1.086       .  S
C1065      C1066   1.406       .  A
C1065      C1070   1.407       .  A
C1066      H1077   1.083       .  S
C1066      C1067   1.405       .  A
C1067      H1078   1.083       .  S
C1067      C1068   1.407       .  A
C1068      C1069   1.409       .  A
C1069      H1079   1.083       .  S
C1069      C1070   1.400       .  A
C1070      H1080   1.083       .  S
C1081      C1082   1.407       .  A
C1081      C1086   1.407       .  A
C1082      H1095   1.083       .  S
C1082      C1083   1.402       .  A
C1083      H1096   1.083       .  S
C1083      C1084   1.403       .  A
C1084      C1085   1.406       .  A
C1084      C1087   1.486       .  S
C1085      H1097   1.083       .  S
C1085      C1086   1.398       .  A
C1086      H1098   1.083       .  S
C1087      C1088   1.345       .  D
C1087      H1099   1.086       .  S
C1088      C1089   1.484       .  S
C1088      H1100   1.087       .  S
C1089      C1090   1.401       .  A
C1089      C1094   1.408       .  A
C1090      H1101   1.083       .  S
C1090      C1091   1.395       .  A
C1091      H1102   1.083   1_554  S
C1091      C1092   1.407       .  A
C1092      C1093   1.408       .  A
C1093      H1103   1.083       .  S
C1093      C1094   1.404       .  A
C1094      H1104   1.082       .  S
C1105      C1106   1.405       .  A
C1105      C1110   1.407       .  A
C1106      H1119   1.083       .  S
C1106      C1107   1.402       .  A
C1107      H1120   1.083       .  S
C1107      C1108   1.404       .  A
C1108      C1109   1.404       .  A
C1108      C1111   1.482       .  S
C1109      H1121   1.083       .  S
C1109      C1110   1.394       .  A
C1110      H1122   1.083       .  S
C1111      C1112   1.346       .  D
C1111      H1123   1.087       .  S
C1112      C1113   1.478       .  S
C1112      H1124   1.087       .  S
C1113      C1114   1.401       .  A
C1113      C1118   1.406       .  A
C1114      H1125   1.084       .  S
C1114      C1115   1.395       .  A
C1115      H1126   1.083       .  S
C1115      C1116   1.405       .  A
C1116      C1117   1.405       .  A
C1117      H1127   1.083       .  S
C1117      C1118   1.400       .  A
C1118      H1128   1.083       .  S
C1129      C1130   1.405   1_556  A
C1129      C1134   1.406       .  A
C1130      H1143   1.083       .  S
C1130      C1131   1.394       .  A
C1131      H1144   1.084       .  S
C1131      C1132   1.401       .  A
C1132      C1133   1.409   1_554  A
C1132      C1135   1.484       .  S
C1133      H1145   1.082       .  S
C1133      C1134   1.406       .  A
C1134      H1146   1.083       .  S
C1135      C1136   1.347       .  D
C1135      H1147   1.087       .  S
C1136      C1137   1.488       .  S
C1136      H1148   1.086       .  S
C1137      C1138   1.405       .  A
C1137      C1142   1.405       .  A
C1138      H1149   1.083       .  S
C1138      C1139   1.404       .  A
C1139      H1150   1.083       .  S
C1139      C1140   1.407       .  A
C1140      C1141   1.407       .  A
C1141      H1151   1.083       .  S
C1141      C1142   1.395       .  A
C1142      H1152   1.082       .  S
C1153      C1154   1.405       .  A
C1153      C1158   1.407       .  A
C1154      H1167   1.083       .  S
C1154      C1155   1.394       .  A
C1155      H1168   1.084       .  S
C1155      C1156   1.403       .  A
C1156      C1157   1.409       .  A
C1156      C1159   1.486       .  S
C1157      H1169   1.081       .  S
C1157      C1158   1.402       .  A
C1158      H1170   1.083       .  S
C1159      C1160   1.348       .  D
C1159      H1171   1.086       .  S
C1160      C1161   1.487       .  S
C1160      H1172   1.084       .  S
C1161      C1162   1.405       .  A
C1161      C1166   1.406       .  A
C1162      H1173   1.083       .  S
C1162      C1163   1.402       .  A
C1163      H1174   1.083       .  S
C1163      C1164   1.406       .  A
C1164      C1165   1.406       .  A
C1165      H1175   1.083       .  S
C1165      C1166   1.393       .  A
C1166      H1176   1.082       .  S
C1177      C1178   1.406       .  A
C1177      C1182   1.408       .  A
C1178      H1191   1.083       .  S
C1178      C1179   1.398       .  A
C1179      H1192   1.083       .  S
C1179      C1180   1.403       .  A
C1180      C1181   1.408       .  A
C1180      C1183   1.489       .  S
C1181      H1193   1.082       .  S
C1181      C1182   1.406       .  A
C1182      H1194   1.083       .  S
C1183      C1184   1.350       .  D
C1183      H1195   1.086       .  S
C1184      C1185   1.493       .  S
C1184      H1196   1.086       .  S
C1185      C1186   1.407       .  A
C1185      C1190   1.405       .  A
C1186      H1197   1.083       .  S
C1186      C1187   1.406       .  A
C1187      H1198   1.083       .  S
C1187      C1188   1.407       .  A
C1188      C1189   1.408       .  A
C1189      H1199   1.083       .  S
C1189      C1190   1.398       .  A
C1190      H1200   1.082       .  S
C1201      C1202   1.406       .  A
C1201      C1206   1.406       .  A
C1202      H1215   1.083       .  S
C1202      C1203   1.400       .  A
C1203      H1216   1.083       .  S
C1203      C1204   1.404       .  A
C1204      C1205   1.407       .  A
C1204      C1207   1.487       .  S
C1205      H1217   1.082       .  S
C1205      C1206   1.396       .  A
C1206      H1218   1.083       .  S
C1207      C1208   1.347       .  D
C1207      H1219   1.086       .  S
C1208      C1209   1.486       .  S
C1208      H1220   1.087       .  S
C1209      C1210   1.401       .  A
C1209      C1214   1.409       .  A
C1210      H1221   1.084       .  S
C1210      C1211   1.395       .  A
C1211      H1222   1.082       .  S
C1211      C1212   1.406       .  A
C1212      C1213   1.408       .  A
C1213      H1223   1.084       .  S
C1213      C1214   1.403       .  A
C1214      H1224   1.079       .  S
C1225      C1226   1.408       .  A
C1225      C1230   1.407       .  A
C1226      H1239   1.083       .  S
C1226      C1227   1.397       .  A
C1227      H1240   1.084       .  S
C1227      C1228   1.402       .  A
C1228      C1229   1.410       .  A
C1228      C1231   1.492       .  S
C1229      H1241   1.082       .  S
C1229      C1230   1.404       .  A
C1230      H1242   1.083       .  S
C1231      C1232   1.348       .  D
C1231      H1243   1.085       .  S
C1232      C1233   1.493       .  S
C1232      H1244   1.085       .  S
C1233      C1234   1.402       .  A
C1233      C1238   1.411   1_545  A
C1234      H1245   1.084       .  S
C1234      C1235   1.396       .  A
C1235      H1246   1.083       .  S
C1235      C1236   1.407   1_545  A
C1236      C1237   1.407       .  A
C1237      H1247   1.083       .  S
C1237      C1238   1.406       .  A
C1238      H1248   1.081       .  S
C1249      C1250   1.404       .  A
C1249      C1254   1.403       .  A
C1250      H1263   1.084       .  S
C1250      C1251   1.391       .  A
C1251      H1264   1.084       .  S
C1251      C1252   1.402       .  A
C1252      C1253   1.413       .  A
C1252      C1255   1.488       .  S
C1253      H1265   1.080       .  S
C1253      C1254   1.404       .  A
C1254      H1266   1.083       .  S
C1255      C1256   1.345       .  D
C1255      H1267   1.087       .  S
C1256      C1257   1.484       .  S
C1256      H1268   1.083       .  S
C1257      C1258   1.400       .  A
C1257      C1262   1.408       .  A
C1258      H1269   1.084       .  S
C1258      C1259   1.397       .  A
C1259      H1270   1.083       .  S
C1259      C1260   1.408       .  A
C1260      C1261   1.405       .  A
C1261      H1271   1.083       .  S
C1261      C1262   1.399       .  A
C1262      H1272   1.082       .  S
C1273      C1274   1.405       .  A
C1273      C1278   1.403       .  A
C1274      H1287   1.083       .  S
C1274      C1275   1.399       .  A
C1275      H1288   1.083       .  S
C1275      C1276   1.402       .  A
C1276      C1277   1.406       .  A
C1276      C1279   1.480       .  S
C1277      H1289   1.083       .  S
C1277      C1278   1.399       .  A
C1278      H1290   1.083       .  S
C1279      C1280   1.344       .  D
C1279      H1291   1.087       .  S
C1280      C1281   1.482       .  S
C1280      H1292   1.087       .  S
C1281      C1282   1.404       .  A
C1281      C1286   1.405       .  A
C1282      H1293   1.083       .  S
C1282      C1283   1.402       .  A
C1283      H1294   1.083       .  S
C1283      C1284   1.403       .  A
C1284      C1285   1.404       .  A
C1285      H1295   1.084       .  S
C1285      C1286   1.396       .  A
C1286      H1296   1.083       .  S
C1297      C1298   1.406   1_565  A
C1297      C1302   1.406       .  A
C1298      H1311   1.083       .  S
C1298      C1299   1.395       .  A
C1299      H1312   1.084       .  S
C1299      C1300   1.401       .  A
C1300      C1301   1.409   1_545  A
C1300      C1303   1.488       .  S
C1301      H1313   1.082       .  S
C1301      C1302   1.406       .  A
C1302      H1314   1.083       .  S
C1303      C1304   1.347       .  D
C1303      H1315   1.086       .  S
C1304      C1305   1.489       .  S
C1304      H1316   1.086   1_545  S
C1305      C1306   1.402       .  A
C1305      C1310   1.408       .  A
C1306      H1317   1.084       .  S
C1306      C1307   1.399       .  A
C1307      H1318   1.083       .  S
C1307      C1308   1.408       .  A
C1308      C1309   1.407       .  A
C1309      H1319   1.083       .  S
C1309      C1310   1.402       .  A
C1310      H1320   1.082       .  S
C1321      C1322   1.404       .  A
C1321      C1326   1.409       .  A
C1322      H1335   1.083       .  S
C1322      C1323   1.396       .  A
C1323      H1336   1.083       .  S
C1323      C1324   1.405       .  A
C1324      C1325   1.407       .  A
C1324      C1327   1.487       .  S
C1325      H1337   1.081       .  S
C1325      C1326   1.401       .  A
C1326      H1338   1.083       .  S
C1327      C1328   1.350       .  D
C1327      H1339   1.087       .  S
C1328      C1329   1.487       .  S
C1328      H1340   1.085       .  S
C1329      C1330   1.406       .  A
C1329      C1334   1.405       .  A
C1330      H1341   1.083       .  S
C1330      C1331   1.405       .  A
C1331      H1342   1.083       .  S
C1331      C1332   1.406       .  A
C1332      C1333   1.404       .  A
C1333      H1343   1.084       .  S
C1333      C1334   1.391       .  A
C1334      H1344   1.082       .  S
C1345      C1346   1.407       .  A
C1345      C1350   1.407       .  A
C1346      H1359   1.083       .  S
C1346      C1347   1.397       .  A
C1347      H1360   1.084       .  S
C1347      C1348   1.402       .  A
C1348      C1349   1.409       .  A
C1348      C1351   1.488       .  S
C1349      H1361   1.082       .  S
C1349      C1350   1.404       .  A
C1350      H1362   1.083       .  S
C1351      C1352   1.347       .  D
C1351      H1363   1.086       .  S
C1352      C1353   1.490       .  S
C1352      H1364   1.086       .  S
C1353      C1354   1.402       .  A
C1353      C1358   1.408       .  A
C1354      H1365   1.084       .  S
C1354      C1355   1.399       .  A
C1355      H1366   1.083       .  S
C1355      C1356   1.407       .  A
C1356      C1357   1.407       .  A
C1357      H1367   1.083       .  S
C1357      C1358   1.402       .  A
C1358      H1368   1.082       .  S
C1369      C1370   1.405       .  A
C1369      C1374   1.408       .  A
C1370      H1383   1.083       .  S
C1370      C1371   1.401       .  A
C1371      H1384   1.083       .  S
C1371      C1372   1.405       .  A
C1372      C1373   1.407   1_655  A
C1372      C1375   1.491   1_655  S
C1373      H1385   1.082       .  S
C1373      C1374   1.402   1_455  A
C1374      H1386   1.083   1_655  S
C1375      C1376   1.350       .  D
C1375      H1387   1.086   1_455  S
C1376      C1377   1.492       .  S
C1376      H1388   1.086       .  S
C1377      C1378   1.406       .  A
C1377      C1382   1.406       .  A
C1378      H1389   1.083       .  S
C1378      C1379   1.404       .  A
C1379      H1390   1.083       .  S
C1379      C1380   1.407       .  A
C1380      C1381   1.408       .  A
C1381      H1391   1.083       .  S
C1381      C1382   1.399       .  A
C1382      H1392   1.082       .  S
C1393      C1394   1.405       .  A
C1393      C1398   1.408       .  A
C1394      H1407   1.083       .  S
C1394      C1395   1.401       .  A
C1395      H1408   1.083       .  S
C1395      C1396   1.405       .  A
C1396      C1397   1.407       .  A
C1396      C1399   1.490       .  S
C1397      H1409   1.082       .  S
C1397      C1398   1.401       .  A
C1398      H1410   1.083       .  S
C1399      C1400   1.350       .  D
C1399      H1411   1.086       .  S
C1400      C1401   1.491       .  S
C1400      H1412   1.086       .  S
C1401      C1402   1.406       .  A
C1401      C1406   1.405       .  A
C1402      H1413   1.083       .  S
C1402      C1403   1.404       .  A
C1403      H1414   1.083       .  S
C1403      C1404   1.406       .  A
C1404      C1405   1.408       .  A
C1405      H1415   1.083       .  S
C1405      C1406   1.397       .  A
C1406      H1416   1.082       .  S
C1417      C1418   1.406       .  A
C1417      C1422   1.407       .  A
C1418      H1431   1.083       .  S
C1418      C1419   1.402       .  A
C1419      H1432   1.083       .  S
C1419      C1420   1.404       .  A
C1420      C1421   1.405       .  A
C1420      C1423   1.486       .  S
C1421      H1433   1.083       .  S
C1421      C1422   1.396       .  A
C1422      H1434   1.083   1_455  S
C1423      C1424   1.347       .  D
C1423      H1435   1.086       .  S
C1424      C1425   1.484       .  S
C1424      H1436   1.087       .  S
C1425      C1426   1.402       .  A
C1425      C1430   1.407       .  A
C1426      H1437   1.083       .  S
C1426      C1427   1.397       .  A
C1427      H1438   1.083       .  S
C1427      C1428   1.405       .  A
C1428      C1429   1.406       .  A
C1429      H1439   1.083       .  S
C1429      C1430   1.401       .  A
C1430      H1440   1.082       .  S
C1441      C1442   1.407       .  A
C1441      C1446   1.408       .  A
C1442      H1455   1.083       .  S
C1442      C1443   1.404       .  A
C1443      H1456   1.083       .  S
C1443      C1444   1.406       .  A
C1444      C1445   1.405       .  A
C1444      C1447   1.489       .  S
C1445      H1457   1.082       .  S
C1445      C1446   1.395       .  A
C1446      H1458   1.083       .  S
C1447      C1448   1.351       .  D
C1447      H1459   1.084       .  S
C1448      C1449   1.489       .  S
C1448      H1460   1.086       .  S
C1449      C1450   1.406       .  A
C1449      C1454   1.407       .  A
C1450      H1461   1.083       .  S
C1450      C1451   1.398       .  A
C1451      H1462   1.083       .  S
C1451      C1452   1.404       .  A
C1452      C1453   1.409       .  A
C1453      H1463   1.083       .  S
C1453      C1454   1.399       .  A
C1454      H1464   1.081       .  S
C1465      C1466   1.408   1_655  A
C1465      C1470   1.408       .  A
C1466      H1479   1.083       .  S
C1466      C1467   1.396       .  A
C1467      H1480   1.084       .  S
C1467      C1468   1.401       .  A
C1468      C1469   1.408   1_455  A
C1468      C1471   1.487       .  S
C1469      H1481   1.083       .  S
C1469      C1470   1.407       .  A
C1470      H1482   1.083       .  S
C1471      C1472   1.347       .  D
C1471      H1483   1.087       .  S
C1472      C1473   1.490       .  S
C1472      H1484   1.087       .  S
C1473      C1474   1.406       .  A
C1473      C1478   1.405       .  A
C1474      H1485   1.083       .  S
C1474      C1475   1.405       .  A
C1475      H1486   1.083       .  S
C1475      C1476   1.406       .  A
C1476      C1477   1.408       .  A
C1477      H1487   1.083       .  S
C1477      C1478   1.398       .  A
C1478      H1488   1.083       .  S
C1489      C1490   1.407       .  A
C1489      C1494   1.406       .  A
C1490      H1503   1.083       .  S
C1490      C1491   1.402       .  A
C1491      H1504   1.083       .  S
C1491      C1492   1.404       .  A
C1492      C1493   1.406       .  A
C1492      C1495   1.489       .  S
C1493      H1505   1.082       .  S
C1493      C1494   1.396       .  A
C1494      H1506   1.083       .  S
C1495      C1496   1.349       .  D
C1495      H1507   1.084       .  S
C1496      C1497   1.490       .  S
C1496      H1508   1.086       .  S
C1497      C1498   1.404       .  A
C1497      C1502   1.408       .  A
C1498      H1509   1.083       .  S
C1498      C1499   1.397       .  A
C1499      H1510   1.083       .  S
C1499      C1500   1.405       .  A
C1500      C1501   1.408       .  A
C1501      H1511   1.083       .  S
C1501      C1502   1.402       .  A
C1502      H1512   1.081       .  S
C1513      C1514   1.408       .  A
C1513      C1518   1.406       .  A
C1514      H1527   1.083       .  S
C1514      C1515   1.395       .  A
C1515      H1528   1.084       .  S
C1515      C1516   1.402       .  A
C1516      C1517   1.413       .  A
C1516      C1519   1.496       .  S
C1517      H1529   1.079       .  S
C1517      C1518   1.406       .  A
C1518      H1530   1.083       .  S
C1519      C1520   1.348       .  D
C1519      H1531   1.085       .  S
C1520      C1521   1.492       .  S
C1520      H1532   1.083       .  S
C1521      C1522   1.402       .  A
C1521      C1526   1.411       .  A
C1522      H1533   1.083       .  S
C1522      C1523   1.397       .  A
C1523      H1534   1.083       .  S
C1523      C1524   1.407       .  A
C1524      C1525   1.406       .  A
C1525      H1535   1.083       .  S
C1525      C1526   1.404       .  A
C1526      H1536   1.082       .  S
C1537      C1538   1.405       .  A
C1537      C1542   1.408       .  A
C1538      H1551   1.083       .  S
C1538      C1539   1.401       .  A
C1539      H1552   1.083       .  S
C1539      C1540   1.406       .  A
C1540      C1541   1.407       .  A
C1540      C1543   1.491       .  S
C1541      H1553   1.082       .  S
C1541      C1542   1.398       .  A
C1542      H1554   1.083       .  S
C1543      C1544   1.350       .  D
C1543      H1555   1.084       .  S
C1544      C1545   1.491       .  S
C1544      H1556   1.085       .  S
C1545      C1546   1.404       .  A
C1545      C1550   1.409       .  A
C1546      H1557   1.083       .  S
C1546      C1547   1.398       .  A
C1547      H1558   1.082       .  S
C1547      C1548   1.406       .  A
C1548      C1549   1.407       .  A
C1549      H1559   1.084       .  S
C1549      C1550   1.401       .  A
C1550      H1560   1.079       .  S
C1561      C1562   1.406       .  A
C1561      C1566   1.409       .  A
C1562      H1575   1.083   1_554  S
C1562      C1563   1.396       .  A
C1563      H1576   1.084       .  S
C1563      C1564   1.402       .  A
C1564      C1565   1.410       .  A
C1564      C1567   1.492       .  S
C1565      H1577   1.082       .  S
C1565      C1566   1.408       .  A
C1566      H1578   1.083   1_565  S
C1567      C1568   1.349       .  D
C1567      H1579   1.086       .  S
C1568      C1569   1.495       .  S
C1568      H1580   1.086       .  S
C1569      C1570   1.404       .  A
C1569      C1574   1.410       .  A
C1570      H1581   1.084       .  S
C1570      C1571   1.401       .  A
C1571      H1582   1.083       .  S
C1571      C1572   1.408       .  A
C1572      C1573   1.406       .  A
C1573      H1583   1.083       .  S
C1573      C1574   1.403       .  A
C1574      H1584   1.082       .  S
C1585      C1586   1.408       .  A
C1585      C1590   1.407       .  A
C1586      H1599   1.083       .  S
C1586      C1587   1.397       .  A
C1587      H1600   1.084       .  S
C1587      C1588   1.401       .  A
C1588      C1589   1.408       .  A
C1588      C1591   1.488       .  S
C1589      H1601   1.082       .  S
C1589      C1590   1.403       .  A
C1590      H1602   1.083       .  S
C1591      C1592   1.347       .  D
C1591      H1603   1.086       .  S
C1592      C1593   1.488       .  S
C1592      H1604   1.086       .  S
C1593      C1594   1.402       .  A
C1593      C1598   1.409       .  A
C1594      H1605   1.084       .  S
C1594      C1595   1.398       .  A
C1595      H1606   1.083       .  S
C1595      C1596   1.405       .  A
C1596      C1597   1.405       .  A
C1597      H1607   1.083   1_655  S
C1597      C1598   1.402       .  A
C1598      H1608   1.082       .  S
C1609      C1610   1.405       .  A
C1609      C1614   1.408       .  A
C1610      H1623   1.083       .  S
C1610      C1611   1.398       .  A
C1611      H1624   1.083       .  S
C1611      C1612   1.401       .  A
C1612      C1613   1.407       .  A
C1612      C1615   1.484       .  S
C1613      H1625   1.083       .  S
C1613      C1614   1.405       .  A
C1614      H1626   1.083       .  S
C1615      C1616   1.347       .  D
C1615      H1627   1.087       .  S
C1616      C1617   1.488       .  S
C1616      H1628   1.087       .  S
C1617      C1618   1.406       .  A
C1617      C1622   1.404       .  A
C1618      H1629   1.083       .  S
C1618      C1619   1.406       .  A
C1619      H1630   1.083       .  S
C1619      C1620   1.407       .  A
C1620      C1621   1.407       .  A
C1621      H1631   1.083       .  S
C1621      C1622   1.395       .  A
C1622      H1632   1.083       .  S
C1633      C1634   1.407       .  A
C1633      C1638   1.406       .  A
C1634      H1647   1.083       .  S
C1634      C1635   1.404       .  A
C1635      H1648   1.083       .  S
C1635      C1636   1.405       .  A
C1636      C1637   1.408       .  A
C1636      C1639   1.494       .  S
C1637      H1649   1.082       .  S
C1637      C1638   1.399       .  A
C1638      H1650   1.083       .  S
C1639      C1640   1.348       .  D
C1639      H1651   1.086       .  S
C1640      C1641   1.488       .  S
C1640      H1652   1.086       .  S
C1641      C1642   1.400       .  A
C1641      C1646   1.410       .  A
C1642      H1653   1.084   1_455  S
C1642      C1643   1.393   1_455  A
C1643      H1654   1.083       .  S
C1643      C1644   1.408   1_655  A
C1644      C1645   1.408       .  A
C1645      H1655   1.083   1_556  S
C1645      C1646   1.409       .  A
C1646      H1656   1.082       .  S
C1657      C1658   1.407       .  A
C1657      C1662   1.407       .  A
C1658      H1671   1.083       .  S
C1658      C1659   1.403       .  A
C1659      H1672   1.083       .  S
C1659      C1660   1.406       .  A
C1660      C1661   1.407       .  A
C1660      C1663   1.492       .  S
C1661      H1673   1.081       .  S
C1661      C1662   1.399       .  A
C1662      H1674   1.083       .  S
C1663      C1664   1.351       .  D
C1663      H1675   1.085       .  S
C1664      C1665   1.492       .  S
C1664      H1676   1.085       .  S
C1665      C1666   1.406       .  A
C1665      C1670   1.406       .  A
C1666      H1677   1.083       .  S
C1666      C1667   1.403       .  A
C1667      H1678   1.082   1_565  S
C1667      C1668   1.406       .  A
C1668      C1669   1.409       .  A
C1669      H1679   1.083       .  S
C1669      C1670   1.399       .  A
C1670      H1680   1.081       .  S
C1681      C1682   1.406       .  A
C1681      C1686   1.405       .  A
C1682      H1695   1.083       .  S
C1682      C1683   1.402       .  A
C1683      H1696   1.083       .  S
C1683      C1684   1.404       .  A
C1684      C1685   1.406       .  A
C1684      C1687   1.484       .  S
C1685      H1697   1.082       .  S
C1685      C1686   1.394       .  A
C1686      H1698   1.083       .  S
C1687      C1688   1.345       .  D
C1687      H1699   1.087       .  S
C1688      C1689   1.480       .  S
C1688      H1700   1.087       .  S
C1689      C1690   1.400       .  A
C1689      C1694   1.407       .  A
C1690      H1701   1.084       .  S
C1690      C1691   1.395       .  A
C1691      H1702   1.083       .  S
C1691      C1692   1.406       .  A
C1692      C1693   1.405       .  A
C1693      H1703   1.083       .  S
C1693      C1694   1.402       .  A
C1694      H1704   1.082       .  S
C1705      C1706   1.407       .  A
C1705      C1710   1.408       .  A
C1706      H1719   1.082       .  S
C1706      C1707   1.396       .  A
C1707      H1720   1.084       .  S
C1707      C1708   1.402       .  A
C1708      C1709   1.410       .  A
C1708      C1711   1.491       .  S
C1709      H1721   1.081       .  S
C1709      C1710   1.405       .  A
C1710      H1722   1.083       .  S
C1711      C1712   1.347       .  D
C1711      H1723   1.086       .  S
C1712      C1713   1.490       .  S
C1712      H1724   1.085       .  S
C1713      C1714   1.401       .  A
C1713      C1718   1.410       .  A
C1714      H1725   1.084       .  S
C1714      C1715   1.396       .  A
C1715      H1726   1.083       .  S
C1715      C1716   1.407       .  A
C1716      C1717   1.406       .  A
C1717      H1727   1.083   1_556  S
C1717      C1718   1.404       .  A
C1718      H1728   1.082       .  S
C1729      C1730   1.406       .  A
C1729      C1734   1.406       .  A
C1730      H1743   1.083       .  S
C1730      C1731   1.396       .  A
C1731      H1744   1.083       .  S
C1731      C1732   1.403       .  A
C1732      C1733   1.412       .  A
C1732      C1735   1.493       .  S
C1733      H1745   1.080       .  S
C1733      C1734   1.404       .  A
C1734      H1746   1.083       .  S
C1735      C1736   1.347       .  D
C1735      H1747   1.086       .  S
C1736      C1737   1.490       .  S
C1736      H1748   1.084       .  S
C1737      C1738   1.402       .  A
C1737      C1742   1.410       .  A
C1738      H1749   1.083       .  S
C1738      C1739   1.397       .  A
C1739      H1750   1.083       .  S
C1739      C1740   1.406       .  A
C1740      C1741   1.406       .  A
C1741      H1751   1.083       .  S
C1741      C1742   1.403       .  A
C1742      H1752   1.082       .  S
C1753      C1754   1.406       .  A
C1753      C1758   1.408       .  A
C1754      H1767   1.083       .  S
C1754      C1755   1.400       .  A
C1755      H1768   1.084       .  S
C1755      C1756   1.405       .  A
C1756      C1757   1.408       .  A
C1756      C1759   1.492       .  S
C1757      H1769   1.081       .  S
C1757      C1758   1.401       .  A
C1758      H1770   1.083       .  S
C1759      C1760   1.351       .  D
C1759      H1771   1.085       .  S
C1760      C1761   1.493       .  S
C1760      H1772   1.085       .  S
C1761      C1762   1.407       .  A
C1761      C1766   1.407       .  A
C1762      H1773   1.084   1_655  S
C1762      C1763   1.404   1_655  A
C1763      H1774   1.083       .  S
C1763      C1764   1.406   1_455  A
C1764      C1765   1.407       .  A
C1765      H1775   1.083       .  S
C1765      C1766   1.396       .  A
C1766      H1776   1.081       .  S
C1777      C1778   1.406       .  A
C1777      C1782   1.407       .  A
C1778      H1791   1.083       .  S
C1778      C1779   1.399       .  A
C1779      H1792   1.083       .  S
C1779      C1780   1.403       .  A
C1780      C1781   1.406       .  A
C1780      C1783   1.485       .  S
C1781      H1793   1.082       .  S
C1781      C1782   1.400       .  A
C1782      H1794   1.083       .  S
C1783      C1784   1.345       .  D
C1783      H1795   1.087       .  S
C1784      C1785   1.483       .  S
C1784      H1796   1.086       .  S
C1785      C1786   1.403       .  A
C1785      C1790   1.407       .  A
C1786      H1797   1.083       .  S
C1786      C1787   1.400       .  A
C1787      H1798   1.083       .  S
C1787      C1788   1.405       .  A
C1788      C1789   1.404       .  A
C1789      H1799   1.083       .  S
C1789      C1790   1.400       .  A
C1790      H1800   1.083       .  S
C1801      C1802   1.407       .  A
C1801      C1806   1.407       .  A
C1802      H1815   1.083       .  S
C1802      C1803   1.399       .  A
C1803      H1816   1.083       .  S
C1803      C1804   1.402       .  A
C1804      C1805   1.405       .  A
C1804      C1807   1.483       .  S
C1805      H1817   1.083       .  S
C1805      C1806   1.399       .  A
C1806      H1818   1.083       .  S
C1807      C1808   1.345       .  D
C1807      H1819   1.087       .  S
C1808      C1809   1.479       .  S
C1808      H1820   1.087       .  S
C1809      C1810   1.401       .  A
C1809      C1814   1.406       .  A
C1810      H1821   1.084       .  S
C1810      C1811   1.395       .  A
C1811      H1822   1.083       .  S
C1811      C1812   1.404       .  A
C1812      C1813   1.405       .  A
C1813      H1823   1.083       .  S
C1813      C1814   1.402       .  A
C1814      H1824   1.083       .  S
C1825      C1826   1.406       .  A
C1825      C1830   1.407       .  A
C1826      H1839   1.083       .  S
C1826      C1827   1.391       .  A
C1827      H1840   1.084       .  S
C1827      C1828   1.401       .  A
C1828      C1829   1.411       .  A
C1828      C1831   1.487       .  S
C1829      H1841   1.081       .  S
C1829      C1830   1.407       .  A
C1830      H1842   1.083       .  S
C1831      C1832   1.347       .  D
C1831      H1843   1.087       .  S
C1832      C1833   1.489       .  S
C1832      H1844   1.085       .  S
C1833      C1834   1.403       .  A
C1833      C1838   1.407       .  A
C1834      H1845   1.083       .  S
C1834      C1835   1.403       .  A
C1835      H1846   1.083       .  S
C1835      C1836   1.409       .  A
C1836      C1837   1.406       .  A
C1837      H1847   1.083       .  S
C1837      C1838   1.395       .  A
C1838      H1848   1.082       .  S
C1849      C1850   1.405       .  A
C1849      C1854   1.405       .  A
C1850      H1863   1.083       .  S
C1850      C1851   1.399       .  A
C1851      H1864   1.083       .  S
C1851      C1852   1.403       .  A
C1852      C1853   1.408       .  A
C1852      C1855   1.486       .  S
C1853      H1865   1.083       .  S
C1853      C1854   1.402       .  A
C1854      H1866   1.083       .  S
C1855      C1856   1.347       .  D
C1855      H1867   1.086       .  S
C1856      C1857   1.489       .  S
C1856      H1868   1.087       .  S
C1857      C1858   1.406       .  A
C1857      C1862   1.406       .  A
C1858      H1869   1.083       .  S
C1858      C1859   1.403       .  A
C1859      H1870   1.083       .  S
C1859      C1860   1.405       .  A
C1860      C1861   1.406       .  A
C1861      H1871   1.083       .  S
C1861      C1862   1.398       .  A
C1862      H1872   1.082       .  S
C1873      C1874   1.406       .  A
C1873      C1878   1.406       .  A
C1874      H1887   1.083       .  S
C1874      C1875   1.394       .  A
C1875      H1888   1.084       .  S
C1875      C1876   1.402       .  A
C1876      C1877   1.409       .  A
C1876      C1879   1.487       .  S
C1877      H1889   1.080       .  S
C1877      C1878   1.402       .  A
C1878      H1890   1.083       .  S
C1879      C1880   1.348       .  D
C1879      H1891   1.086       .  S
C1880      C1881   1.487       .  S
C1880      H1892   1.084       .  S
C1881      C1882   1.404       .  A
C1881      C1886   1.406       .  A
C1882      H1893   1.083       .  S
C1882      C1883   1.402       .  A
C1883      H1894   1.083       .  S
C1883      C1884   1.407       .  A
C1884      C1885   1.406       .  A
C1885      H1895   1.083       .  S
C1885      C1886   1.394       .  A
C1886      H1896   1.082       .  S
C1897      C1898   1.405       .  A
C1897      C1902   1.405       .  A
C1898      H1911   1.083       .  S
C1898      C1899   1.396       .  A
C1899      H1912   1.083       .  S
C1899      C1900   1.401       .  A
C1900      C1901   1.406       .  A
C1900      C1903   1.479       .  S
C1901      H1913   1.083       .  S
C1901      C1902   1.400       .  A
C1902      H1914   1.083       .  S
C1903      C1904   1.345       .  D
C1903      H1915   1.087       .  S
C1904      C1905   1.482       .  S
C1904      H1916   1.087       .  S
C1905      C1906   1.405       .  A
C1905      C1910   1.404       .  A
C1906      H1917   1.083       .  S
C1906      C1907   1.403       .  A
C1907      H1918   1.083       .  S
C1907      C1908   1.404       .  A
C1908      C1909   1.405       .  A
C1909      H1919   1.083       .  S
C1909      C1910   1.393       .  A
C1910      H1920   1.083       .  S
C1921      C1922   1.407       .  A
C1921      C1926   1.405       .  A
C1922      H1935   1.083       .  S
C1922      C1923   1.399       .  A
C1923      H1936   1.083       .  S
C1923      C1924   1.404       .  A
C1924      C1925   1.410       .  A
C1924      C1927   1.491       .  S
C1925      H1937   1.080       .  S
C1925      C1926   1.398       .  A
C1926      H1938   1.083       .  S
C1927      C1928   1.347       .  D
C1927      H1939   1.086       .  S
C1928      C1929   1.486       .  S
C1928      H1940   1.084       .  S
C1929      C1930   1.401       .  A
C1929      C1934   1.410       .  A
C1930      H1941   1.084       .  S
C1930      C1931   1.394       .  A
C1931      H1942   1.083       .  S
C1931      C1932   1.405       .  A
C1932      C1933   1.405       .  A
C1933      H1943   1.083       .  S
C1933      C1934   1.404       .  A
C1934      H1944   1.082       .  S
C1945      C1946   1.405       .  A
C1945      C1950   1.408       .  A
C1946      H1959   1.083       .  S
C1946      C1947   1.400       .  A
C1947      H1960   1.083       .  S
C1947      C1948   1.403       .  A
C1948      C1949   1.405       .  A
C1948      C1951   1.484       .  S
C1949      H1961   1.083       .  S
C1949      C1950   1.399       .  A
C1950      H1962   1.083       .  S
C1951      C1952   1.346       .  D
C1951      H1963   1.087       .  S
C1952      C1953   1.483       .  S
C1952      H1964   1.087       .  S
C1953      C1954   1.402       .  A
C1953      C1958   1.407       .  A
C1954      H1965   1.083       .  S
C1954      C1955   1.398       .  A
C1955      H1966   1.083       .  S
C1955      C1956   1.404       .  A
C1956      C1957   1.404       .  A
C1957      H1967   1.083       .  S
C1957      C1958   1.401       .  A
C1958      H1968   1.083       .  S
C1969      C1970   1.405       .  A
C1969      C1974   1.408       .  A
C1970      H1983   1.083       .  S
C1970      C1971   1.394       .  A
C1971      H1984   1.084       .  S
C1971      C1972   1.403       .  A
C1972      C1973   1.410       .  A
C1972      C1975   1.490       .  S
C1973      H1985   1.081       .  S
C1973      C1974   1.406       .  A
C1974      H1986   1.083       .  S
C1975      C1976   1.349       .  D
C1975      H1987   1.086       .  S
C1976      C1977   1.492       .  S
C1976      H1988   1.085       .  S
C1977      C1978   1.406       .  A
C1977      C1982   1.406       .  A
C1978      H1989   1.083       .  S
C1978      C1979   1.405       .  A
C1979      H1990   1.083       .  S
C1979      C1980   1.408       .  A
C1980      C1981   1.407       .  A
C1981      H1991   1.083       .  S
C1981      C1982   1.395       .  A
C1982      H1992   1.082       .  S
C1993      C1994   1.408       .  A
C1993      C1998   1.405       .  A
C1994      H2007   1.083       .  S
C1994      C1995   1.402       .  A
C1995      H2008   1.083       .  S
C1995      C1996   1.404       .  A
C1996      C1997   1.408       .  A
C1996      C1999   1.493       .  S
C1997      H2009   1.082       .  S
C1997      C1998   1.399       .  A
C1998      H2010   1.083       .  S
C1999      C2000   1.349       .  D
C1999      H2011   1.084       .  S
C2000      C2001   1.492       .  S
C2000      H2012   1.085       .  S
C2001      C2002   1.402       .  A
C2001      C2006   1.411       .  A
C2002      H2013   1.084       .  S
C2002      C2003   1.394       .  A
C2003      H2014   1.083       .  S
C2003      C2004   1.406       .  A
C2004      C2005   1.409       .  A
C2005      H2015   1.083       .  S
C2005      C2006   1.407       .  A
C2006      H2016   1.081       .  S
C2017      C2018   1.406       .  A
C2017      C2022   1.407       .  A
C2018      H2031   1.083       .  S
C2018      C2019   1.394       .  A
C2019      H2032   1.084       .  S
C2019      C2020   1.402       .  A
C2020      C2021   1.409       .  A
C2020      C2023   1.487       .  S
C2021      H2033   1.082       .  S
C2021      C2022   1.404       .  A
C2022      H2034   1.083       .  S
C2023      C2024   1.347       .  D
C2023      H2035   1.087       .  S
C2024      C2025   1.489       .  S
C2024      H2036   1.086       .  S
C2025      C2026   1.403       .  A
C2025      C2030   1.407       .  A
C2026      H2037   1.084       .  S
C2026      C2027   1.401       .  A
C2027      H2038   1.083       .  S
C2027      C2028   1.409       .  A
C2028      C2029   1.406       .  A
C2029      H2039   1.083       .  S
C2029      C2030   1.398       .  A
C2030      H2040   1.082       .  S
C2041      C2042   1.409       .  A
C2041      C2046   1.406       .  A
C2042      H2055   1.083       .  S
C2042      C2043   1.402       .  A
C2043      H2056   1.083       .  S
C2043      C2044   1.403       .  A
C2044      C2045   1.408       .  A
C2044      C2047   1.493       .  S
C2045      H2057   1.082       .  S
C2045      C2046   1.398       .  A
C2046      H2058   1.083       .  S
C2047      C2048   1.348       .  D
C2047      H2059   1.085       .  S
C2048      C2049   1.492       .  S
C2048      H2060   1.086       .  S
C2049      C2050   1.402       .  A
C2049      C2054   1.411       .  A
C2050      H2061   1.084       .  S
C2050      C2051   1.393       .  A
C2051      H2062   1.083       .  S
C2051      C2052   1.405       .  A
C2052      C2053   1.408       .  A
C2053      H2063   1.083       .  S
C2053      C2054   1.408       .  A
C2054      H2064   1.081       .  S
C2065      C2066   1.407       .  A
C2065      C2070   1.408       .  A
C2066      H2079   1.082       .  S
C2066      C2067   1.407       .  A
C2067      H2080   1.083       .  S
C2067      C2068   1.407       .  A
C2068      C2069   1.405       .  A
C2068      C2071   1.493       .  S
C2069      H2081   1.082       .  S
C2069      C2070   1.394       .  A
C2070      H2082   1.083       .  S
C2071      C2072   1.351       .  D
C2071      H2083   1.085       .  S
C2072      C2073   1.492       .  S
C2072      H2084   1.086       .  S
C2073      C2074   1.404       .  A
C2073      C2078   1.409       .  A
C2074      H2085   1.084       .  S
C2074      C2075   1.397       .  A
C2075      H2086   1.083       .  S
C2075      C2076   1.405       .  A
C2076      C2077   1.409       .  A
C2077      H2087   1.083       .  S
C2077      C2078   1.404       .  A
C2078      H2088   1.081       .  S
C2089      C2090   1.405       .  A
C2089      C2094   1.409       .  A
C2090      H2103   1.083       .  S
C2090      C2091   1.393       .  A
C2091      H2104   1.083       .  S
C2091      C2092   1.402       .  A
C2092      C2093   1.408       .  A
C2092      C2095   1.486       .  S
C2093      H2105   1.081       .  S
C2093      C2094   1.405       .  A
C2094      H2106   1.083       .  S
C2095      C2096   1.349       .  D
C2095      H2107   1.087       .  S
C2096      C2097   1.488       .  S
C2096      H2108   1.085       .  S
C2097      C2098   1.405       .  A
C2097      C2102   1.405       .  A
C2098      H2109   1.083       .  S
C2098      C2099   1.405       .  A
C2099      H2110   1.083       .  S
C2099      C2100   1.408       .  A
C2100      C2101   1.405       .  A
C2101      H2111   1.083       .  S
C2101      C2102   1.392       .  A
C2102      H2112   1.083       .  S
C2113      C2114   1.406       .  A
C2113      C2118   1.405       .  A
C2114      H2127   1.083       .  S
C2114      C2115   1.398       .  A
C2115      H2128   1.083       .  S
C2115      C2116   1.401       .  A
C2116      C2117   1.406       .  A
C2116      C2119   1.481       .  S
C2117      H2129   1.083       .  S
C2117      C2118   1.401       .  A
C2118      H2130   1.083       .  S
C2119      C2120   1.345       .  D
C2119      H2131   1.087       .  S
C2120      C2121   1.484       .  S
C2120      H2132   1.087       .  S
C2121      C2122   1.405       .  A
C2121      C2126   1.404       .  A
C2122      H2133   1.083       .  S
C2122      C2123   1.403       .  A
C2123      H2134   1.083       .  S
C2123      C2124   1.405       .  A
C2124      C2125   1.406       .  A
C2125      H2135   1.083       .  S
C2125      C2126   1.396       .  A
C2126      H2136   1.083       .  S
C2137      C2138   1.405       .  A
C2137      C2142   1.406       .  A
C2138      H2151   1.083       .  S
C2138      C2139   1.400       .  A
C2139      H2152   1.083       .  S
C2139      C2140   1.404       .  A
C2140      C2141   1.407       .  A
C2140      C2143   1.488       .  S
C2141      H2153   1.082       .  S
C2141      C2142   1.400       .  A
C2142      H2154   1.083       .  S
C2143      C2144   1.347       .  D
C2143      H2155   1.086       .  S
C2144      C2145   1.485       .  S
C2144      H2156   1.086       .  S
C2145      C2146   1.402       .  A
C2145      C2150   1.409       .  A
C2146      H2157   1.083       .  S
C2146      C2147   1.396       .  A
C2147      H2158   1.083       .  S
C2147      C2148   1.403       .  A
C2148      C2149   1.405       .  A
C2149      H2159   1.083       .  S
C2149      C2150   1.404       .  A
C2150      H2160   1.082       .  S
C2161      C2162   1.407       .  A
C2161      C2166   1.407       .  A
C2162      H2175   1.083       .  S
C2162      C2163   1.401       .  A
C2163      H2176   1.083       .  S
C2163      C2164   1.405       .  A
C2164      C2165   1.409       .  A
C2164      C2167   1.494       .  S
C2165      H2177   1.081       .  S
C2165      C2166   1.400       .  A
C2166      H2178   1.083       .  S
C2167      C2168   1.350       .  D
C2167      H2179   1.085       .  S
C2168      C2169   1.492       .  S
C2168      H2180   1.085       .  S
C2169      C2170   1.403       .  A
C2169      C2174   1.411       .  A
C2170      H2181   1.084       .  S
C2170      C2171   1.396       .  A
C2171      H2182   1.083       .  S
C2171      C2172   1.405       .  A
C2172      C2173   1.404       .  A
C2173      H2183   1.083       .  S
C2173      C2174   1.405       .  A
C2174      H2184   1.081       .  S
C2185      C2186   1.405       .  A
C2185      C2190   1.406       .  A
C2186      H2199   1.083       .  S
C2186      C2187   1.403       .  A
C2187      H2200   1.083       .  S
C2187      C2188   1.405       .  A
C2188      C2189   1.405       .  A
C2188      C2191   1.487       .  S
C2189      H2201   1.083       .  S
C2189      C2190   1.399       .  A
C2190      H2202   1.083       .  S
C2191      C2192   1.347       .  D
C2191      H2203   1.087       .  S
C2192      C2193   1.485       .  S
C2192      H2204   1.087       .  S
C2193      C2194   1.403       .  A
C2193      C2198   1.406       .  A
C2194      H2205   1.083       .  S
C2194      C2195   1.400       .  A
C2195      H2206   1.083       .  S
C2195      C2196   1.406       .  A
C2196      C2197   1.407       .  A
C2197      H2207   1.083       .  S
C2197      C2198   1.401       .  A
C2198      H2208   1.083       .  S
C2209      C2210   1.405       .  A
C2209      C2214   1.406       .  A
C2210      H2223   1.083       .  S
C2210      C2211   1.396       .  A
C2211      H2224   1.084       .  S
C2211      C2212   1.401       .  A
C2212      C2213   1.406       .  A
C2212      C2215   1.482       .  S
C2213      H2225   1.083       .  S
C2213      C2214   1.403       .  A
C2214      H2226   1.083       .  S
C2215      C2216   1.346       .  D
C2215      H2227   1.087       .  S
C2216      C2217   1.485       .  S
C2216      H2228   1.087       .  S
C2217      C2218   1.403       .  A
C2217      C2222   1.406       .  A
C2218      H2229   1.083       .  S
C2218      C2219   1.400       .  A
C2219      H2230   1.083       .  S
C2219      C2220   1.405       .  A
C2220      C2221   1.407       .  A
C2221      H2231   1.083       .  S
C2221      C2222   1.399       .  A
C2222      H2232   1.083       .  S
C2233      C2234   1.405       .  A
C2233      C2238   1.406       .  A
C2234      H2247   1.083       .  S
C2234      C2235   1.397       .  A
C2235      H2248   1.083       .  S
C2235      C2236   1.402       .  A
C2236      C2237   1.406       .  A
C2236      C2239   1.480       .  S
C2237      H2249   1.083       .  S
C2237      C2238   1.400       .  A
C2238      H2250   1.083       .  S
C2239      C2240   1.345       .  D
C2239      H2251   1.087       .  S
C2240      C2241   1.482       .  S
C2240      H2252   1.087       .  S
C2241      C2242   1.404       .  A
C2241      C2246   1.404       .  A
C2242      H2253   1.083       .  S
C2242      C2243   1.403       .  A
C2243      H2254   1.083       .  S
C2243      C2244   1.405       .  A
C2244      C2245   1.405       .  A
C2245      H2255   1.083       .  S
C2245      C2246   1.395       .  A
C2246      H2256   1.083       .  S
C2257      C2258   1.407       .  A
C2257      C2262   1.404       .  A
C2258      H2271   1.083       .  S
C2258      C2259   1.401       .  A
C2259      H2272   1.083       .  S
C2259      C2260   1.404       .  A
C2260      C2261   1.410       .  A
C2260      C2263   1.493       .  S
C2261      H2273   1.081       .  S
C2261      C2262   1.398       .  A
C2262      H2274   1.083       .  S
C2263      C2264   1.347       .  D
C2263      H2275   1.085       .  S
C2264      C2265   1.488       .  S
C2264      H2276   1.085       .  S
C2265      C2266   1.400       .  A
C2265      C2270   1.411       .  A
C2266      H2277   1.084       .  S
C2266      C2267   1.391       .  A
C2267      H2278   1.083       .  S
C2267      C2268   1.406       .  A
C2268      C2269   1.407       .  A
C2269      H2279   1.083       .  S
C2269      C2270   1.407       .  A
C2270      H2280   1.081       .  S
C2281      C2282   1.405       .  A
C2281      C2286   1.405       .  A
C2282      H2295   1.083       .  S
C2282      C2283   1.404       .  A
C2283      H2296   1.083       .  S
C2283      C2284   1.405       .  A
C2284      C2285   1.406       .  A
C2284      C2287   1.487       .  S
C2285      H2297   1.083       .  S
C2285      C2286   1.397       .  A
C2286      H2298   1.083       .  S
C2287      C2288   1.347       .  D
C2287      H2299   1.086       .  S
C2288      C2289   1.484       .  S
C2288      H2300   1.087       .  S
C2289      C2290   1.403       .  A
C2289      C2294   1.407       .  A
C2290      H2301   1.083       .  S
C2290      C2291   1.398       .  A
C2291      H2302   1.083       .  S
C2291      C2292   1.404       .  A
C2292      C2293   1.406       .  A
C2293      H2303   1.083       .  S
C2293      C2294   1.402       .  A
C2294      H2304   1.083       .  S
