geometry optimzed in LAMMPS
_audit_creation_date              2020-11-30 
_audit_creation_method            'lammps2cif' 
_symmetry_space_group_name_H-M    'P1' 
_symmetry_Int_Tables_number       1 
_symmetry_cell_setting            triclinic 
loop_ 
_symmetry_equiv_pos_as_xyz 
  x,y,z 
_cell_length_a                    34.27767244129139 
_cell_length_b                    34.25312538651197 
_cell_length_c                    34.347571362751395 
_cell_angle_alpha                 89.8620576663881 
_cell_angle_beta                  90.06578625964451 
_cell_angle_gamma                 120.3127971136823 
loop_ 
_atom_site_label 
_atom_site_type_symbol 
_atom_site_fract_x 
_atom_site_fract_y 
_atom_site_fract_z 
_atom_site_charge 
O1          O  0.95477515  0.41088208  0.36720237    -0.56990
C2          C  0.93585748  0.30304642  0.43812560     0.75630
O3          O  0.05878340  0.38232648  0.43315883    -0.58150
C4          C  0.98935510  0.44763181  0.35665449     0.75610
C5          C  0.00006736  0.45038627  0.48280504     0.78000
Cd6        Cd  0.99543557  0.39516412  0.41877293     1.37460
O7          O  0.93114090  0.31824978  0.40578307    -0.56990
O8          O  0.96291775  0.41915567  0.46930805    -0.55800
C9          C  0.05445135  0.36199184  0.40121947     0.77960
O10         O  0.03589374  0.45591889  0.46679395    -0.58170
O11         O  0.96110243  0.33204672  0.46299508    -0.56620
O12         O  0.02604082  0.45861578  0.37411428    -0.56610
O13         O  0.03038434  0.36612908  0.37548017    -0.55790
O14         O  0.03495152  0.59958912  0.11860174    -0.56990
C15         C  0.05506431  0.70975674  0.18259779     0.75630
O16         O  0.93252055  0.63176909  0.18652526    -0.58150
C17         C  0.99979368  0.56484499  0.10591061     0.75610
C18         C  0.98774671  0.56048708  0.23240193     0.78000
Cd19       Cd  0.99347774  0.61659413  0.16831219     1.37460
O20         O  0.05383795  0.69304706  0.14938014    -0.56990
O21         O  0.02496270  0.59369597  0.22108952    -0.55800
C22         C  0.93323819  0.64905906  0.15366467     0.77960
O23         O  0.95245223  0.55357320  0.21443681    -0.58170
O24         O  0.03493952  0.68196364  0.20997116    -0.56620
O25         O  0.96264173  0.55541136  0.12165343    -0.56610
O26         O  0.95378762  0.64189991  0.12658795    -0.55790
O27         O  0.40222248  0.45424322  0.29459190    -0.56990
C28         C  0.29026351  0.36132642  0.36001462     0.75630
O29         O  0.36702699  0.31788283  0.36165030    -0.58150
C30         C  0.43327051  0.44955418  0.27915091     0.75610
C31         C  0.43973221  0.44718950  0.40658432     0.78000
Cd32       Cd  0.38286383  0.39456102  0.34379617     1.37470
O33         O  0.30655864  0.38065006  0.32763465    -0.56990
O34         O  0.40831305  0.45256191  0.39318635    -0.55800
C35         C  0.34928827  0.30144272  0.32887444     0.77960
O36         O  0.44484650  0.41648119  0.39099455    -0.58170
O37         O  0.31835889  0.36642636  0.38625125    -0.56620
O38         O  0.43988599  0.41927582  0.29350519    -0.56610
O39         O  0.35598369  0.32947268  0.30201440    -0.55790
O40         O  0.58982601  0.56259646  0.04158056    -0.56990
C41         C  0.69863283  0.65043175  0.10983605     0.75630
O42         O  0.62189957  0.69403714  0.11275478    -0.58150
C43         C  0.55520364  0.56321342  0.02927588     0.75610
C44         C  0.54823764  0.56480310  0.15541833     0.78000
Cd45       Cd  0.60631177  0.61841880  0.09335258     1.37460
O46         O  0.68276246  0.63327181  0.07679000    -0.56990
O47         O  0.57642512  0.55621162  0.13952028    -0.55800
C48         C  0.63934120  0.71181426  0.08023851     0.77960
O49         O  0.54747910  0.59932118  0.14294483    -0.58170
O50         O  0.67020745  0.64327195  0.13636510    -0.56620
O51         O  0.54569600  0.59032574  0.04600190    -0.56610
O52         O  0.63236840  0.68492345  0.05241047    -0.55790
O53         O  0.68251748  0.06771629  0.02875215    -0.56990
C54         C  0.55463432  0.01184188  0.07886753     0.75630
O55         O  0.54355473  0.96490046  0.46806621    -0.58150
C56         C  0.69680893  0.06436478  0.49556363     0.75610
C57         C  0.63693253  0.94434779  0.03026812     0.78000
Cd58       Cd  0.60490221  0.00485821  0.01565194     1.37470
O59         O  0.59231010  0.04557491  0.06893334    -0.56990
O60         O  0.63190271  0.96619246  0.05751860    -0.55800
C61         C  0.54814575  0.00081781  0.45289536     0.77960
O62         O  0.61754441  0.94249060  0.99831959    -0.58170
O63         O  0.54166668  0.97536564  0.06037096    -0.56620
O64         O  0.66710518  0.04075976  0.47054078    -0.56610
O65         O  0.57918121  0.03792853  0.46668756    -0.55790
O66         O  0.40247160  0.96690246  0.31416979    -0.56990
C67         C  0.29251980  0.94809306  0.24519428     0.75630
O68         O  0.37193951  0.07155817  0.25043216    -0.58150
C69         C  0.43593501  0.00260353  0.32777697     0.75610
C70         C  0.44095802  0.01467840  0.20084973     0.78000
Cd71       Cd  0.38443963  0.00801785  0.26454297     1.37460
O72         O  0.30793850  0.94365340  0.27753206    -0.56990
O73         O  0.40765558  0.97734566  0.21181451    -0.55800
C74         C  0.34997645  0.06592228  0.28170350     0.77960
O75         O  0.44816024  0.04982943  0.21919532    -0.58170
O76         O  0.32124135  0.97356714  0.22019255    -0.56620
O77         O  0.44401387  0.03964200  0.31253441    -0.56610
O78         O  0.35261355  0.04067493  0.30718098    -0.55790
C79         C  0.91123472  0.80387147  0.14240467     0.01390
C80         C  0.87709267  0.80445815  0.12295845     0.01380
C81         C  0.79352955  0.88979388  0.06257550     0.01390
C82         C  0.79295447  0.92484400  0.04458405     0.01380
C83         C  0.08035876  0.88697516  0.20488813     0.01390
C84         C  0.11443277  0.92104551  0.22539948     0.01380
C85         C  0.19531377  0.12429392  0.30748160     0.01390
C86         C  0.19611558  0.08975522  0.28895323     0.01380
C87         C  0.90801212  0.12411344  0.45400144     0.01390
C88         C  0.87423352  0.09017517  0.47473191     0.01380
C89         C  0.07671757  0.20728075  0.39046745     0.01390
C90         C  0.11188834  0.20715991  0.37258275     0.01380
C91         C  0.99643241  0.14827912  0.38017681    -0.20490
C92         C  0.03484645  0.16638966  0.40397219    -0.08530
C93         C  0.02916543  0.15689331  0.44417541     0.30330
C94         C  0.98588876  0.13610043  0.46088508    -0.20490
C95         C  0.94784110  0.12364775  0.43750039    -0.08540
C96         C  0.95318692  0.12656310  0.39674946     0.30340
F97         F  0.91690838  0.11397233  0.37325646    -0.19060
H98         H  0.99997746  0.15548900  0.34925104     0.18700
H99         H  0.98265446  0.13444364  0.49228409     0.18710
F100        F  0.06574087  0.17311427  0.46789068    -0.19050
C101        C  0.11396654  0.16538469  0.31488482    -0.20490
C102        C  0.11098217  0.16683933  0.35563856    -0.08530
C103        C  0.12348581  0.14083622  0.37841160     0.30330
C104        C  0.14455452  0.11925372  0.36095945    -0.20490
C105        C  0.15392288  0.12391621  0.32080002    -0.08540
C106        C  0.13560402  0.14442040  0.29752021     0.30340
F107        F  0.14427931  0.14980328  0.25873399    -0.19060
H108        H  0.10477260  0.18543729  0.29678929     0.18700
H109        H  0.15874825  0.10391003  0.37947411     0.18710
F110        F  0.12104524  0.14143134  0.41780537    -0.19050
C111        C  0.11054899  0.96721993  0.27952988    -0.20490
C112        C  0.11424836  0.96205337  0.23932602    -0.08530
C113        C  0.13272771  0.00064407  0.21550931     0.30330
C114        C  0.15271511  0.04374430  0.23227699    -0.20490
C115        C  0.15596114  0.04895138  0.27295451    -0.08540
C116        C  0.13197364  0.01038799  0.29642348     0.30340
F117        F  0.13432909  0.01414478  0.33578973    -0.19060
H118        H  0.09571942  0.93786212  0.29838664     0.18700
H119        H  0.17053371  0.07302577  0.21357830     0.18710
F120        F  0.13692923  0.99692320  0.17660620    -0.19050
C121        C  0.84146048  0.96937346  0.98898073    -0.20490
C122        C  0.83349031  0.96590951  0.02936844    -0.08530
C123        C  0.85263288  0.00563836  0.05157462     0.30330
C124        C  0.87392855  0.04787350  0.03307885    -0.20490
C125        C  0.87544459  0.05106968  0.49221795    -0.08540
C126        C  0.86193322  0.01168664  0.47036146     0.30340
F127        F  0.86287906  0.01351623  0.43088907    -0.19060
H128        H  0.82666383  0.93908624  0.97130707     0.18700
H129        H  0.88396045  0.07780030  0.05049080     0.18710
F130        F  0.84509918  0.00351564  0.09051443    -0.19050
C131        C  0.95663879  0.84237877  0.20046138    -0.20490
C132        C  0.95104123  0.84364784  0.15999771    -0.08530
C133        C  0.98889563  0.87228731  0.13721978     0.30330
C134        C  0.03220224  0.89396242  0.15400217    -0.20490
C135        C  0.03812830  0.88610121  0.19321377    -0.08540
C136        C  0.99982987  0.86285811  0.21694036     0.30340
F137        F  0.00433398  0.85452652  0.25484976    -0.19060
H138        H  0.92790283  0.82055532  0.21860206     0.18700
H139        H  0.06137074  0.91222806  0.13529533     0.18710
F140        F  0.98475271  0.87445344  0.09810248    -0.19050
C141        C  0.86663883  0.87115634  0.13094199    -0.20490
C142        C  0.87798949  0.84526374  0.10699824    -0.08530
C143        C  0.87405867  0.84771772  0.06636137     0.30330
C144        C  0.85224239  0.86936228  0.05058814    -0.20490
C145        C  0.83499977  0.88971697  0.07504598    -0.08540
C146        C  0.84576373  0.89381577  0.11498128     0.30340
F147        F  0.83038309  0.91427850  0.13926020    -0.19060
H148        H  0.86910844  0.86958052  0.16226884     0.18700
H149        H  0.84404901  0.86549788  0.01985203     0.18710
F150        F  0.88545105  0.82365917  0.04232489    -0.19050
C151        C  0.21464883  0.91870677  0.27073368    -0.20490
C152        C  0.24373209  0.93004292  0.23855490    -0.08530
C153        C  0.22795011  0.93366542  0.20158392     0.30330
C154        C  0.18542290  0.92941925  0.19764061    -0.20490
C155        C  0.15785015  0.92145007  0.23028341    -0.08540
C156        C  0.17209139  0.91455040  0.26672845     0.30340
F157        F  0.14532695  0.90448064  0.29856082    -0.19060
H158        H  0.22591975  0.91589638  0.29951782     0.18700
H159        H  0.17452959  0.93394094  0.16921666     0.18710
F160        F  0.25452062  0.94378108  0.16953738    -0.19050
C161        C  0.30538890  0.09836317  0.25355658    -0.20490
C162        C  0.31775631  0.08232960  0.28630708    -0.08530
C163        C  0.29202734  0.07285203  0.32068182     0.30330
C164        C  0.25326709  0.07646078  0.32119195    -0.20490
C165        C  0.23934192  0.08944877  0.28768019    -0.08540
C166        C  0.26640117  0.10176609  0.25411915     0.30340
F167        F  0.25472647  0.11600924  0.22163182    -0.19060
H168        H  0.32430439  0.10563546  0.22667819     0.18700
H169        H  0.23313103  0.06768553  0.34749824     0.18710
F170        F  0.30265137  0.05752125  0.35317647    -0.19050
C171        C  0.75658414  0.06709808  0.45311127    -0.20490
C172        C  0.74518487  0.08129276  0.48749603    -0.08530
C173        C  0.77848088  0.10280456  0.51646526     0.30330
C174        C  0.82103993  0.10685070  0.51207679    -0.20490
C175        C  0.83077854  0.08954258  0.47886672    -0.08540
C176        C  0.79878279  0.07090200  0.44892319     0.30340
F177        F  0.80774840  0.05459055  0.41625065    -0.19060
H178        H  0.73181337  0.05028764  0.43030653     0.18700
H179        H  0.84593328  0.12235532  0.53497008     0.18710
F180        F  0.76925008  0.11778587  0.04978724    -0.19050
C181        C  0.68807532  0.92947168  0.07099809    -0.20490
C182        C  0.66935070  0.92810905  0.03425051    -0.08530
C183        C  0.68961322  0.92187314  0.00095152     0.30330
C184        C  0.72941570  0.92020547  0.00436415    -0.20490
C185        C  0.74928959  0.92412554  0.04091304    -0.08540
C186        C  0.72766281  0.92754967  0.07434908     0.30340
F187        F  0.74615873  0.93133956  0.11010420    -0.19060
H188        H  0.67356569  0.93473793  0.09704800     0.18700
H189        H  0.74517867  0.91673929  0.97836045     0.18710
F190        F  0.67306807  0.92084401  0.96481202    -0.19050
C191        C  0.45172730  0.96140853  0.38025154    -0.20490
C192        C  0.46454535  0.00160177  0.35963324    -0.08530
C193        C  0.50519457  0.04098199  0.36970060     0.30330
C194        C  0.53192811  0.04010905  0.39990586    -0.20490
C195        C  0.51913084  0.00011144  0.42068458    -0.08540
C196        C  0.47868193  0.96055545  0.41056116     0.30340
F197        F  0.46466595  0.92133245  0.43033932    -0.19060
H198        H  0.42060175  0.93066796  0.37313989     0.18700
H199        H  0.56300343  0.07097280  0.40689274     0.18710
F200        F  0.51961961  0.08043843  0.35016526    -0.19050
C201        C  0.51689422  0.04647142  0.16979611    -0.20490
C202        C  0.47002338  0.01647593  0.16856177    -0.08530
C203        C  0.45134990  0.98626344  0.13726821     0.30330
C204        C  0.47925895  0.98528801  0.10826172    -0.20490
C205        C  0.52623737  0.01450096  0.10977591    -0.08540
C206        C  0.54496231  0.04542285  0.14069547     0.30340
F207        F  0.59035562  0.07319063  0.14366538    -0.19060
H208        H  0.53189163  0.06965252  0.19395292     0.18700
H209        H  0.46402346  0.96169587  0.08440490     0.18710
F210        F  0.40599334  0.95807025  0.13445180    -0.19050
C211        C  0.68868153  0.77821010  0.03865589    -0.20490
C212        C  0.67148772  0.76081893  0.07581949    -0.08530
C213        C  0.69273444  0.78791398  0.10870900     0.30330
C214        C  0.73193174  0.83014732  0.10439734    -0.20490
C215        C  0.75029584  0.84618341  0.06737193    -0.08540
C216        C  0.72775664  0.82036672  0.03442811     0.30340
F217        F  0.74491079  0.83501055  0.99824071    -0.19060
H218        H  0.67341371  0.75801550  0.01288063     0.18700
H219        H  0.74839460  0.84985703  0.13006064     0.18710
F220        F  0.67770067  0.77239923  0.14521504    -0.19050
C221        C  0.75969970  0.71125498  0.14884930    -0.20490
C222        C  0.74721299  0.68292540  0.11605823    -0.08530
C223        C  0.77940909  0.69290456  0.08649178     0.30330
C224        C  0.82210907  0.73205460  0.08879357    -0.20490
C225        C  0.83293572  0.76170176  0.12036955    -0.08540
C226        C  0.80192658  0.75038042  0.15086237     0.30340
F227        F  0.81205981  0.77808042  0.18210079    -0.19060
H228        H  0.73571704  0.70480186  0.17197976     0.18700
H229        H  0.84631640  0.73969779  0.06564166     0.18710
F230        F  0.76904436  0.66600514  0.05469779    -0.19050
C231        C  0.29813686  0.23796615  0.28581761    -0.20490
C232        C  0.31722502  0.25264348  0.32294373    -0.08530
C233        C  0.29795480  0.22292809  0.35483678     0.30330
C234        C  0.25880971  0.18069541  0.34977566    -0.20490
C235        C  0.23849777  0.16761370  0.31300788    -0.08540
C236        C  0.25900236  0.19613937  0.28092028     0.30340
F237        F  0.23976886  0.18450599  0.24510713    -0.19060
H238        H  0.31182164  0.26010176  0.26078654     0.18700
H239        H  0.24371211  0.15870838  0.37468055     0.18710
F240        F  0.31500355  0.23572281  0.39126431    -0.19050
C241        C  0.16776180  0.27818704  0.33731937    -0.20490
C242        C  0.15586037  0.25012846  0.37022938    -0.08530
C243        C  0.18571163  0.26305753  0.40179637     0.30330
C244        C  0.22795690  0.30219821  0.39963692    -0.20490
C245        C  0.24151162  0.32900194  0.36573961    -0.08540
C246        C  0.21030228  0.31751037  0.33502559     0.30340
F247        F  0.22161639  0.34284473  0.30207197    -0.19060
H248        H  0.14450176  0.26908674  0.31313949     0.18700
H249        H  0.25112720  0.30989583  0.42372621     0.18710
F250        F  0.17461688  0.23678033  0.43418209    -0.19050
C251        C  0.46160306  0.51848503  0.23718432    -0.20490
C252        C  0.46108512  0.47825040  0.24646824    -0.08530
C253        C  0.48863790  0.46650695  0.22506592     0.30330
C254        C  0.51659810  0.49485510  0.19560605    -0.20490
C255        C  0.51778862  0.53546252  0.18666067    -0.08540
C256        C  0.48973252  0.54697694  0.20761432     0.30340
F257        F  0.48992088  0.58598643  0.20007863    -0.19060
H258        H  0.44081680  0.52834586  0.25330802     0.18700
H259        H  0.53741736  0.48484786  0.17971885     0.18710
F260        F  0.48850531  0.42746292  0.23233521    -0.19050
C261        C  0.48394504  0.52897007  0.49102695    -0.20490
C262        C  0.52641747  0.53336946  0.99761870    -0.08530
C263        C  0.53996462  0.50847406  0.47439619     0.30330
C264        C  0.51135797  0.47988152  0.44517267    -0.20490
C265        C  0.46903453  0.47586426  0.43849647    -0.08540
C266        C  0.45549248  0.50056709  0.46191224     0.30340
F267        F  0.41441435  0.49683692  0.45717758    -0.19060
H268        H  0.47240567  0.54729762  0.00872699     0.18700
H269        H  0.52263500  0.46142936  0.42733821     0.18710
F270        F  0.58099962  0.51222043  0.47942449    -0.19050
C271        C  0.93215499  0.70952366  0.11491854    -0.20490
C272        C  0.91736015  0.68163176  0.14813534    -0.08530
C273        C  0.89662905  0.69217474  0.17852278     0.30370
C274        C  0.89358805  0.73144916  0.17652100    -0.20490
C275        C  0.91144885  0.76065133  0.14442774    -0.08540
C276        C  0.92962765  0.74880244  0.11321522     0.30340
F277        F  0.94650962  0.77624863  0.08162449    -0.19060
H278        H  0.94855933  0.70265672  0.09115843     0.18700
H279        H  0.87835721  0.73966380  0.20034094     0.18710
F280        F  0.88123718  0.66580211  0.21082990    -0.19050
C281        C  0.07791352  0.78604642  0.15592499    -0.20490
C282        C  0.07314689  0.75873259  0.18828418    -0.08530
C283        C  0.07577378  0.77613459  0.22589606     0.30330
C284        C  0.07926804  0.81823260  0.23077963    -0.20490
C285        C  0.08101164  0.84419913  0.19844130    -0.08540
C286        C  0.08179134  0.82841809  0.16088316     0.30340
F287        F  0.08532263  0.85333410  0.12895525    -0.19060
H288        H  0.07574092  0.77345449  0.12664724     0.18700
H289        H  0.07889192  0.82992809  0.25995302     0.18710
F290        F  0.07232040  0.75141319  0.25801671    -0.19050
C291        C  0.06455436  0.26591545  0.35973223    -0.20490
C292        C  0.07674293  0.25063856  0.39287697    -0.08530
C293        C  0.08905397  0.27673442  0.42694369     0.30330
C294        C  0.08598479  0.31596492  0.42846497    -0.20490
C295        C  0.07075480  0.32970964  0.39599622    -0.08540
C296        C  0.06175438  0.30511890  0.36104538     0.30340
F297        F  0.04761069  0.31727807  0.32869954    -0.19060
H298        H  0.05600019  0.24660965  0.33298743     0.18700
H299        H  0.09301095  0.33406048  0.45574924     0.18710
F300        F  0.10302978  0.26386238  0.45889241    -0.19050
C301        C  0.89089262  0.17872114  0.41915507    -0.20490
C302        C  0.90920379  0.16799343  0.45118063    -0.08530
C303        C  0.92925117  0.19934266  0.48141345     0.30330
C304        C  0.93352523  0.24188956  0.47856028    -0.20490
C305        C  0.91848461  0.25434681  0.44520100    -0.08540
C306        C  0.89554940  0.22170814  0.41603933     0.30340
F307        F  0.87973316  0.23197067  0.38369248    -0.19060
H308        H  0.87409326  0.15429781  0.39617350     0.18700
H309        H  0.95133853  0.26609326  0.50152035     0.18710
F310        F  0.94635185  0.18933901  0.51308360    -0.19050
C311        C  0.95319225  0.45841737  0.29738331    -0.20490
C312        C  0.98746942  0.47661574  0.32566447    -0.08530
C313        C  0.02051508  0.52280723  0.32375767     0.30330
C314        C  0.01991317  0.54976766  0.29354320    -0.20490
C315        C  0.98618724  0.53151324  0.26490293    -0.08540
C316        C  0.95253459  0.48556711  0.26711769     0.30340
F317        F  0.92022312  0.46647386  0.23921218    -0.19060
H318        H  0.92751235  0.42291600  0.29819029     0.18700
H319        H  0.04588976  0.58516942  0.29261618     0.18710
F320        F  0.05312645  0.54220159  0.35139903    -0.19050
C321        C  0.03929694  0.52206784  0.02131415    -0.20490
C322        C  0.00114497  0.47913952  0.01524429    -0.08530
C323        C  0.96335752  0.46457022  0.03963872     0.30330
C324        C  0.96353415  0.49273049  0.06894505    -0.20490
C325        C  0.00129162  0.53593422  0.07474631    -0.08540
C326        C  0.03943417  0.55039402  0.05073730     0.30340
F327        F  0.07631651  0.59218345  0.05495458    -0.19060
H328        H  0.06867450  0.53411123  0.50271840     0.18700
H329        H  0.93393143  0.48049567  0.08729202     0.18710
F330        F  0.92630317  0.42285199  0.03555018    -0.19050
O331        O  0.95477549  0.41088447  0.86720038    -0.56990
C332        C  0.93585811  0.30304879  0.93812278     0.75630
O333        O  0.05878424  0.38232824  0.93315601    -0.58150
C334        C  0.98935520  0.44763423  0.85665226     0.75610
C335        C  0.00006971  0.45038801  0.98280289     0.78000
Cd336      Cd  0.99543677  0.39516634  0.91877000     1.37460
O337        O  0.93114259  0.31825184  0.90577970    -0.56990
O338        O  0.96291991  0.41915763  0.96930602    -0.55800
C339        C  0.05445212  0.36199347  0.90121671     0.77960
O340        O  0.03589586  0.45592091  0.96679110    -0.58170
O341        O  0.96110216  0.33204933  0.96299248    -0.56620
O342        O  0.02604127  0.45861816  0.87411141    -0.56610
O343        O  0.03038535  0.36613092  0.87547730    -0.55790
O344        O  0.03494849  0.59959003  0.61860094    -0.56990
C345        C  0.05506133  0.70975832  0.68259604     0.75630
O346        O  0.93251819  0.63177235  0.68652221    -0.58150
C347        C  0.99979055  0.56484585  0.60591002     0.75610
C348        C  0.98774440  0.56048963  0.73240095     0.78000
Cd349      Cd  0.99347507  0.61659600  0.66831083     1.37460
O350        O  0.05383665  0.69304820  0.64937897    -0.56990
O351        O  0.02496031  0.59369840  0.72108824    -0.55800
C352        C  0.93323709  0.64906241  0.65366135     0.77960
O353        O  0.95244974  0.55357571  0.71443612    -0.58170
O354        O  0.03493537  0.68196565  0.70996944    -0.56620
O355        O  0.96263859  0.55541266  0.62165261    -0.56610
O356        O  0.95378691  0.64190270  0.62658535    -0.55790
O357        O  0.40222024  0.45423661  0.79459581    -0.56990
C358        C  0.29026347  0.36132463  0.86001793     0.75630
O359        O  0.36702277  0.31787709  0.86165562    -0.58150
C360        C  0.43326805  0.44954737  0.77915462     0.75610
C361        C  0.43973224  0.44718551  0.90658782     0.78000
Cd362      Cd  0.38286303  0.39455620  0.84380074     1.37470
O363        O  0.30655971  0.38064865  0.82763834    -0.56990
O364        O  0.40831313  0.45255796  0.89318979    -0.55800
C365        C  0.34928609  0.30143776  0.82887901     0.77960
O366        O  0.44484605  0.41647665  0.89099862    -0.58170
O367        O  0.31835781  0.36642289  0.88625499    -0.56620
O368        O  0.43988448  0.41926986  0.79350945    -0.56610
O369        O  0.35598406  0.32946831  0.80201884    -0.55790
O370        O  0.58982259  0.56259513  0.54158114    -0.56990
C371        C  0.69862990  0.65042663  0.60982932     0.75630
O372        O  0.62190413  0.69402889  0.61277815    -0.58150
C373        C  0.55520057  0.56321271  0.52927640     0.75610
C374        C  0.54823148  0.56479455  0.65542014     0.78000
Cd375      Cd  0.60630653  0.61841385  0.59335631     1.37460
O376        O  0.68275782  0.63327760  0.57678069    -0.56990
O377        O  0.57642007  0.55620447  0.63952237    -0.55800
C378        C  0.63933125  0.71181148  0.58025978     0.77960
O379        O  0.54747189  0.59931206  0.64294681    -0.58170
O380        O  0.67020602  0.64325484  0.63636302    -0.56620
O381        O  0.54569232  0.59032390  0.54600369    -0.56610
O382        O  0.63234527  0.68492548  0.55242455    -0.55790
O383        O  0.68251997  0.06772632  0.52875456    -0.56990
C384        C  0.55463245  0.01185405  0.57887149     0.75630
O385        O  0.54355375  0.96488504  0.96806301    -0.58150
C386        C  0.69680847  0.06435726  0.99556144     0.75610
C387        C  0.63692665  0.94435811  0.53027015     0.78000
Cd388      Cd  0.60490151  0.00487234  0.51565590     1.37470
O389        O  0.59230800  0.04558794  0.56893792    -0.56990
O390        O  0.63190193  0.96620518  0.55752147    -0.55800
C391        C  0.54814448  0.00080245  0.95289247     0.77960
O392        O  0.61753549  0.94250066  0.49832330    -0.58170
O393        O  0.54166582  0.97537846  0.56037424    -0.56620
O394        O  0.66710642  0.04075056  0.97053795    -0.56610
O395        O  0.57918075  0.03791306  0.96668399    -0.55790
O396        O  0.40246437  0.96689304  0.81417326    -0.56990
C397        C  0.29251192  0.94809038  0.74519835     0.75630
O398        O  0.37193624  0.07155497  0.75043971    -0.58150
C399        C  0.43592753  0.00259330  0.82778186     0.75610
C400        C  0.44095252  0.01467875  0.70085608     0.78000
Cd401      Cd  0.38443228  0.00801238  0.76454973     1.37460
O402        O  0.30792836  0.94365092  0.77753742    -0.56990
O403        O  0.40765007  0.97734484  0.71181875    -0.55800
C404        C  0.34997167  0.06591862  0.78171017     0.77960
O405        O  0.44815393  0.04982802  0.71920414    -0.58170
O406        O  0.32123549  0.97356250  0.72019705    -0.56620
O407        O  0.44400528  0.03963277  0.81254228    -0.56610
O408        O  0.35260660  0.04067002  0.80718770    -0.55790
C409        C  0.91123080  0.80387314  0.64239477     0.01390
C410        C  0.87708820  0.80445730  0.62294695     0.01380
C411        C  0.79351579  0.88979115  0.56257687     0.01390
C412        C  0.79294150  0.92484121  0.54458387     0.01380
C413        C  0.08035322  0.88697651  0.70488106     0.01390
C414        C  0.11442653  0.92104623  0.72539366     0.01380
C415        C  0.19530996  0.12429146  0.80748078     0.01390
C416        C  0.19611157  0.08975299  0.78895192     0.01380
C417        C  0.90801374  0.12411648  0.95400126     0.01390
C418        C  0.87423705  0.09017927  0.97473392     0.01380
C419        C  0.07671702  0.20728156  0.89046532     0.01390
C420        C  0.11188744  0.20716024  0.87258073     0.01380
C421        C  0.99643199  0.14828028  0.88017539    -0.20490
C422        C  0.03484630  0.16639070  0.90397036    -0.08530
C423        C  0.02916610  0.15689457  0.94417360     0.30330
C424        C  0.98588988  0.13610254  0.96088386    -0.20490
C425        C  0.94784207  0.12365039  0.93749961    -0.08540
C426        C  0.95318691  0.12656490  0.89674862     0.30340
F427        F  0.91690794  0.11397386  0.87325611    -0.19060
H428        H  0.99997657  0.15548985  0.84924957     0.18700
H429        H  0.98265614  0.13444609  0.99228291     0.18710
F430        F  0.06574200  0.17311520  0.96788830    -0.19050
C431        C  0.11396575  0.16538560  0.81488253    -0.20490
C432        C  0.11098046  0.16683950  0.85563622    -0.08530
C433        C  0.12348186  0.14083465  0.87840930     0.30330
C434        C  0.14454947  0.11925102  0.86095732    -0.20490
C435        C  0.15391913  0.12391436  0.82079813    -0.08540
C436        C  0.13560224  0.14442026  0.79751813     0.30340
F437        F  0.14427881  0.14980384  0.75873212    -0.19060
H438        H  0.10477338  0.18543944  0.79678702     0.18700
H439        H  0.15874165  0.10390590  0.87947209     0.18710
F440        F  0.12104034  0.14142906  0.91780304    -0.19050
C441        C  0.11054039  0.96721941  0.77952375    -0.20490
C442        C  0.11424211  0.96205408  0.73932004    -0.08530
C443        C  0.13272489  0.00064578  0.71550443     0.30330
C444        C  0.15271350  0.04374542  0.73227334    -0.20490
C445        C  0.15595726  0.04895075  0.77295104    -0.08540
C446        C  0.13196639  0.01038678  0.79641867     0.30340
F447        F  0.13431958  0.01414193  0.83578505    -0.19060
H448        H  0.09570812  0.93786083  0.79837962     0.18700
H449        H  0.17053453  0.07302745  0.71357566     0.18710
F450        F  0.13692858  0.99692605  0.67660149    -0.19050
C451        C  0.84145134  0.96936815  0.48898029    -0.20490
C452        C  0.83347894  0.96590517  0.52936765    -0.08530
C453        C  0.85262296  0.00563432  0.55157343     0.30330
C454        C  0.87392222  0.04786924  0.53307739    -0.20490
C455        C  0.87544953  0.05107432  0.99221943    -0.08540
C456        C  0.86193965  0.01169203  0.97036235     0.30340
F457        F  0.86288419  0.01352209  0.93088997    -0.19060
H458        H  0.82665427  0.93908063  0.47130699     0.18700
H459        H  0.88395524  0.07779656  0.55048893     0.18710
F460        F  0.84508720  0.00351250  0.59051287    -0.19050
C461        C  0.95663350  0.84238378  0.70045120    -0.20490
C462        C  0.95103675  0.84365093  0.65998718    -0.08530
C463        C  0.98889208  0.87228841  0.63720933     0.30330
C464        C  0.03219844  0.89396286  0.65399236    -0.20490
C465        C  0.03812345  0.88610322  0.69320469    -0.08540
C466        C  0.99982429  0.86286248  0.71693091     0.30340
F467        F  0.00432716  0.85453242  0.75484101    -0.19060
H468        H  0.92789692  0.82056178  0.71859187     0.18700
H469        H  0.06136742  0.91222689  0.63528573     0.18710
F470        F  0.98475005  0.87445300  0.59809175    -0.19050
C471        C  0.86664362  0.87116202  0.63092949    -0.20490
C472        C  0.87798251  0.84526100  0.60698472    -0.08530
C473        C  0.87403807  0.84770605  0.56634858     0.30330
C474        C  0.85221887  0.86934929  0.55057910    -0.20490
C475        C  0.83498765  0.88971244  0.57503951    -0.08540
C476        C  0.84576652  0.89382123  0.61497193     0.30340
F477        F  0.83039861  0.91429397  0.63925269    -0.19060
H478        H  0.86912410  0.86959356  0.66225587     0.18700
H479        H  0.84401465  0.86547796  0.51984510     0.18710
F480        F  0.88542009  0.82364048  0.54231070    -0.19050
C481        C  0.21463935  0.91870582  0.77073388    -0.20490
C482        C  0.24372472  0.93004198  0.73855662    -0.08530
C483        C  0.22794524  0.93366522  0.70158464     0.30330
C484        C  0.18541835  0.92941938  0.69763886    -0.20490
C485        C  0.15784336  0.92144990  0.73028012    -0.08540
C486        C  0.17208225  0.91454979  0.76672617     0.30340
F487        F  0.14531578  0.90447976  0.79855720    -0.19060
H488        H  0.22590823  0.91589483  0.79951874     0.18700
H489        H  0.17452704  0.93394159  0.66921417     0.18710
F490        F  0.25451780  0.94378111  0.66953946    -0.19050
C491        C  0.30538645  0.09836052  0.75356071    -0.20490
C492        C  0.31775186  0.08232646  0.78631213    -0.08530
C493        C  0.29202081  0.07284831  0.82068563     0.30330
C494        C  0.25326039  0.07645679  0.82119355    -0.20490
C495        C  0.23933722  0.08944518  0.78768079    -0.08540
C496        C  0.26639861  0.10176322  0.75412107     0.30340
F497        F  0.25472609  0.11600714  0.72163296    -0.19060
H498        H  0.32430363  0.10563332  0.72668322     0.18700
H499        H  0.23312280  0.06768128  0.84749895     0.18710
F500        F  0.30264309  0.05751731  0.85318112    -0.19050
C501        C  0.75658805  0.06709999  0.95310933    -0.20490
C502        C  0.74518540  0.08128996  0.98749494    -0.08530
C503        C  0.77847937  0.10280064  0.01646595     0.30330
C504        C  0.82103952  0.10684916  0.01207860    -0.20490
C505        C  0.83078122  0.08954481  0.97886779    -0.08540
C506        C  0.79878781  0.07090637  0.94892230     0.30340
F507        F  0.80775666  0.05459891  0.91624891    -0.19060
H508        H  0.73181901  0.05029089  0.93030310     0.18700
H509        H  0.84593124  0.12235248  0.03497327     0.18710
F510        F  0.76925476  0.11779370  0.54978584    -0.19050
C511        C  0.68805621  0.92945980  0.57099768    -0.20490
C512        C  0.66934291  0.92811694  0.53424895    -0.08530
C513        C  0.68961548  0.92189919  0.50094821     0.30330
C514        C  0.72941588  0.92022821  0.50436143    -0.20490
C515        C  0.74927785  0.92412596  0.54091254    -0.08540
C516        C  0.72764153  0.92753352  0.57434932     0.30340
F517        F  0.74612645  0.93130392  0.61010653    -0.19060
H518        H  0.67353901  0.93471315  0.59704884     0.18700
H519        H  0.74518609  0.91677619  0.47835647     0.18710
F520        F  0.67308328  0.92089288  0.46480751    -0.19050
C521        C  0.45172204  0.96139572  0.88025282    -0.20490
C522        C  0.46453926  0.00158977  0.85963607    -0.08530
C523        C  0.50518951  0.04096927  0.86970264     0.30330
C524        C  0.53192474  0.04009495  0.89990568    -0.20490
C525        C  0.51912823  0.00009670  0.92068309    -0.08540
C526        C  0.47867839  0.96054131  0.91056037     0.30340
F527        F  0.46466314  0.92131773  0.93033737    -0.19060
H528        H  0.42059580  0.93065565  0.87314165     0.18700
H529        H  0.56300071  0.07095832  0.90689201     0.18710
F530        F  0.51961399  0.08042640  0.85016859    -0.19050
C531        C  0.51688941  0.04647621  0.66980269    -0.20490
C532        C  0.47001879  0.01647964  0.66856755    -0.08530
C533        C  0.45134638  0.98626954  0.63727230     0.30330
C534        C  0.47925630  0.98529728  0.60826505    -0.20490
C535        C  0.52623455  0.01451107  0.60978011    -0.08540
C536        C  0.54495840  0.04543082  0.64070123     0.30340
F537        F  0.59035152  0.07319933  0.64367191    -0.19060
H538        H  0.53188600  0.06965560  0.69396071     0.18700
H539        H  0.46402164  0.96170672  0.58440706     0.18710
F540        F  0.40599002  0.95807555  0.63445508    -0.19050
C541        C  0.68864123  0.77821837  0.53867637    -0.20490
C542        C  0.67147645  0.76081669  0.57584389    -0.08530
C543        C  0.69275099  0.78790083  0.60873242     0.30330
C544        C  0.73194552  0.83013476  0.60441338    -0.20490
C545        C  0.75028075  0.84618245  0.56738190    -0.08540
C546        C  0.72771473  0.82037507  0.53444122     0.30340
F547        F  0.74484217  0.83502641  0.49824789    -0.19060
H548        H  0.67335224  0.75803132  0.51290161     0.18700
H549        H  0.74842921  0.84983520  0.63007542     0.18710
F550        F  0.67774863  0.77237373  0.64524208    -0.19050
C551        C  0.75969422  0.71125668  0.64883852    -0.20490
C552        C  0.74720954  0.68292241  0.61605073    -0.08530
C553        C  0.77940684  0.69289798  0.58648629     0.30330
C554        C  0.82210688  0.73204817  0.58878716    -0.20490
C555        C  0.83293176  0.76169982  0.62035961    -0.08540
C556        C  0.80192067  0.75038280  0.65085019     0.30340
F557        F  0.81205161  0.77808759  0.68208487    -0.19060
H558        H  0.73571008  0.70480687  0.67196687     0.18700
H559        H  0.84631555  0.73968802  0.56563709     0.18710
F560        F  0.76904352  0.66599395  0.55469557    -0.19050
C561        C  0.29813593  0.23796269  0.78582046    -0.20490
C562        C  0.31722232  0.25263888  0.82294729    -0.08530
C563        C  0.29794994  0.22292295  0.85483971     0.30330
C564        C  0.25880445  0.18069092  0.84977720    -0.20490
C565        C  0.23849427  0.16761046  0.81300867    -0.08540
C566        C  0.25900101  0.19613662  0.78092177     0.30340
F567        F  0.23976920  0.18450446  0.74510792    -0.19060
H568        H  0.31182242  0.26009874  0.76078983     0.18700
H569        H  0.24370521  0.15870345  0.87468157     0.18710
F570        F  0.31499701  0.23571657  0.89126785    -0.19050
C571        C  0.16776262  0.27818773  0.83731918    -0.20490
C572        C  0.15585984  0.25012818  0.87022859    -0.08530
C573        C  0.18570967  0.26305610  0.90179653     0.30330
C574        C  0.22795509  0.30219663  0.89963857    -0.20490
C575        C  0.24151131  0.32900120  0.86574178    -0.08540
C576        C  0.21030326  0.31751089  0.83502688     0.30340
F577        F  0.22161886  0.34284625  0.80207378    -0.19060
H578        H  0.14450351  0.26908836  0.81313869     0.18700
H579        H  0.25112439  0.30989337  0.92372851     0.18710
F580        F  0.17461336  0.23677794  0.93418176    -0.19050
C581        C  0.46159820  0.51847653  0.73718673    -0.20490
C582        C  0.46108132  0.47824259  0.74647113    -0.08530
C583        C  0.48863376  0.46649898  0.72506849     0.30330
C584        C  0.51659299  0.49484666  0.69560794    -0.20490
C585        C  0.51778271  0.53545362  0.68666232    -0.08540
C586        C  0.48972660  0.54696790  0.70761610     0.30340
F587        F  0.48991414  0.58597693  0.70008014    -0.19060
H588        H  0.44081206  0.52833737  0.75331062     0.18700
H589        H  0.53741229  0.48483959  0.67972056     0.18710
F590        F  0.48850186  0.42745537  0.73233822    -0.19050
C591        C  0.48394711  0.52896912  0.99102802    -0.20490
C592        C  0.52641542  0.53337048  0.49761783    -0.08530
C593        C  0.53996584  0.50847168  0.97439799     0.30330
C594        C  0.51135843  0.47987801  0.94517543    -0.20490
C595        C  0.46903509  0.47586100  0.93849930    -0.08540
C596        C  0.45549381  0.50056505  0.96191427     0.30340
F597        F  0.41441580  0.49683520  0.95717964    -0.19060
H598        H  0.47240295  0.54729750  0.50872659     0.18700
H599        H  0.52263484  0.46142489  0.92734155     0.18710
F600        F  0.58100079  0.51221791  0.97942617    -0.19050
C601        C  0.93215541  0.70952685  0.61491371    -0.20490
C602        C  0.91735969  0.68163549  0.64813080    -0.08530
C603        C  0.89662758  0.69217884  0.67851713     0.30370
C604        C  0.89358568  0.73145270  0.67651369    -0.20490
C605        C  0.91144672  0.76065402  0.64441993    -0.08540
C606        C  0.92962725  0.74880510  0.61320877     0.30340
F607        F  0.94650967  0.77625055  0.58161765    -0.19060
H608        H  0.94856070  0.70265974  0.59115449     0.18700
H609        H  0.87835376  0.73966749  0.70033266     0.18710
F610        F  0.88123525  0.66580698  0.71082466    -0.19050
C611        C  0.07791090  0.78604736  0.65592152    -0.20490
C612        C  0.07314305  0.75873412  0.68828151    -0.08530
C613        C  0.07576743  0.77613638  0.72589285     0.30330
C614        C  0.07926046  0.81823398  0.73077495    -0.20490
C615        C  0.08100566  0.84420007  0.69843573    -0.08540
C616        C  0.08178772  0.82841878  0.66087825     0.30340
F617        F  0.08532056  0.85333435  0.62894960    -0.19060
H618        H  0.07574012  0.77345515  0.62664414     0.18700
H619        H  0.07888250  0.82992967  0.75994787     0.18710
F620        F  0.07231281  0.75141558  0.75801428    -0.19050
C621        C  0.06455472  0.26591669  0.85972983    -0.20490
C622        C  0.07674265  0.25063950  0.89287476    -0.08530
C623        C  0.08905332  0.27673518  0.92694157     0.30330
C624        C  0.08598451  0.31596588  0.92846268    -0.20490
C625        C  0.07075519  0.32971095  0.89599371    -0.08540
C626        C  0.06175503  0.30512030  0.86104284     0.30340
F627        F  0.04761187  0.31727974  0.82869684    -0.19060
H628        H  0.05600079  0.24661099  0.83298498     0.18700
H629        H  0.09301043  0.33406134  0.95574699     0.18710
F630        F  0.10302845  0.26386280  0.95889051    -0.19050
C631        C  0.89089410  0.17872343  0.91915353    -0.20490
C632        C  0.90920474  0.16799613  0.95117975    -0.08530
C633        C  0.92925137  0.19934565  0.98141246     0.30330
C634        C  0.93352522  0.24189241  0.97855861    -0.20490
C635        C  0.91848520  0.25434927  0.94519871    -0.08540
C636        C  0.89555072  0.22171031  0.91603709     0.30340
F637        F  0.87973506  0.23197246  0.88368964    -0.19060
H638        H  0.87409525  0.15429991  0.89617202     0.18700
H639        H  0.95133801  0.26609636  0.00151864     0.18710
F640        F  0.94635182  0.18934252  0.01308309    -0.19050
C641        C  0.95319117  0.45841988  0.79738195    -0.20490
C642        C  0.98746884  0.47661824  0.82566266    -0.08530
C643        C  0.02051431  0.52280979  0.82375584     0.30330
C644        C  0.01991173  0.54977028  0.79354175    -0.20490
C645        C  0.98618533  0.53151587  0.76490187    -0.08540
C646        C  0.95253285  0.48556968  0.76711669     0.30340
F647        F  0.92022097  0.46647642  0.73921151    -0.19060
H648        H  0.92751140  0.42291846  0.79818896     0.18700
H649        H  0.04588823  0.58517208  0.79261466     0.18710
F650        F  0.05312616  0.54220412  0.85139681    -0.19050
C651        C  0.03929428  0.52206674  0.52131538    -0.20490
C652        C  0.00114221  0.47913846  0.51524569    -0.08530
C653        C  0.96335434  0.46456992  0.53963948     0.30330
C654        C  0.96353078  0.49273086  0.56894510    -0.20490
C655        C  0.00128843  0.53593450  0.57474625    -0.08540
C656        C  0.03943130  0.55039359  0.55073778     0.30340
F657        F  0.07631381  0.59218293  0.55495491    -0.19060
H658        H  0.06867687  0.53411287  0.00271672     0.18700
H659        H  0.93392779  0.48049661  0.58729163     0.18710
F660        F  0.92629981  0.42285182  0.53555103    -0.19050
loop_ 
_geom_bond_atom_site_label_1 
_geom_bond_atom_site_label_2 
_geom_bond_distance 
_geom_bond_site_symmetry_2 
_ccdc_geom_bond_type 
O1            C4   1.270       .  A
O1           Cd6   2.473       .  S
C2           O11   1.265       .  A
C2            O7   1.270       .  A
C2          C305   1.481       .  S
O3            C9   1.269       .  A
O3           Cd6   2.472   1_455  S
C4           O12   1.267   1_655  A
C4          C312   1.477       .  S
C5           O10   1.270       .  A
C5            O8   1.268   1_455  A
C5          C652   1.477       .  S
Cd6          O13   2.419   1_655  S
Cd6          O12   2.421   1_655  S
Cd6          O11   2.405       .  S
Cd6           O7   2.478       .  S
Cd6          O10   2.464   1_655  S
Cd6           O8   2.422       .  S
C9           O13   1.264       .  A
C9          C295   1.481       .  S
O14          C17   1.270   1_455  A
O14         Cd19   2.474   1_455  S
C15          O24   1.265       .  A
C15          O20   1.269       .  A
C15         C282   1.479       .  S
O16          C22   1.268       .  A
O16         Cd19   2.476       .  S
C17          O25   1.266       .  A
C17         C325   1.478   1_655  S
C18          O23   1.269       .  A
C18          O21   1.267   1_655  A
C18         C315   1.475       .  S
Cd19         O26   2.416       .  S
Cd19         O25   2.419       .  S
Cd19         O24   2.425   1_655  S
Cd19         O20   2.467   1_655  S
Cd19         O23   2.464       .  S
Cd19         O21   2.431   1_655  S
C22          O26   1.264       .  A
C22         C272   1.479       .  S
O27          C30   1.270       .  A
O27         Cd32   2.468       .  S
C28          O37   1.265       .  A
C28          O33   1.270       .  A
C28         C245   1.480       .  S
O29          C35   1.269       .  A
O29         Cd32   2.474       .  S
C30          O38   1.267       .  A
C30         C252   1.479       .  S
C31          O36   1.270       .  A
C31          O34   1.267       .  A
C31         C265   1.477       .  S
Cd32         O39   2.412       .  S
Cd32         O38   2.419       .  S
Cd32         O37   2.407       .  S
Cd32         O33   2.473       .  S
Cd32         O36   2.469       .  S
Cd32         O34   2.419       .  S
C35          O39   1.265       .  A
C35         C232   1.480       .  S
O40          C43   1.269       .  A
O40         Cd45   2.462       .  S
C41          O50   1.265       .  A
C41          O46   1.268       .  A
C41         C222   1.479       .  S
O42          C48   1.267       .  A
O42         Cd45   2.459       .  S
C43          O51   1.268       .  A
C43         C262   1.478   1_554  S
C44          O49   1.269       .  A
C44          O47   1.268       .  A
C44         C255   1.480       .  S
Cd45         O52   2.429       .  S
Cd45         O51   2.423       .  S
Cd45         O50   2.413       .  S
Cd45         O46   2.471       .  S
Cd45         O49   2.463       .  S
Cd45         O47   2.427       .  S
C48          O52   1.265       .  A
C48         C212   1.479       .  S
O53         C386   1.270   1_554  A
O53         Cd58   2.477       .  S
C54          O63   1.267   1_545  A
C54          O59   1.270       .  A
C54         C205   1.475       .  S
O55          C61   1.269   1_565  A
O55        Cd388   2.463   1_565  S
C56          O64   1.265       .  A
C56         O383   1.270       .  A
C56         C172   1.481       .  S
C57          O62   1.267   1_554  A
C57          O60   1.265       .  A
C57         C182   1.479       .  S
Cd58         O63   2.422   1_545  S
Cd58         O59   2.470       .  S
Cd58         O62   2.459   1_544  S
Cd58         O60   2.430   1_545  S
Cd58        O385   2.463   1_544  S
Cd58        O395   2.426   1_554  S
Cd58        O394   2.411   1_554  S
C61          O65   1.268       .  A
C61         C195   1.479       .  S
O64        Cd388   2.411       .  S
O65        Cd388   2.426       .  S
O66          C69   1.271   1_565  A
O66         Cd71   2.477   1_565  S
C67          O76   1.265       .  A
C67          O72   1.271       .  A
C67         C152   1.479       .  S
O68          C74   1.270       .  A
O68         Cd71   2.468       .  S
C69          O77   1.266       .  A
C69         C192   1.480       .  S
C70          O75   1.269       .  A
C70          O73   1.267   1_545  A
C70         C202   1.472       .  S
Cd71         O78   2.414       .  S
Cd71         O77   2.414       .  S
Cd71         O76   2.414   1_545  S
Cd71         O72   2.469   1_545  S
Cd71         O75   2.467       .  S
Cd71         O73   2.424   1_545  S
C74          O78   1.264       .  A
C74         C162   1.479       .  S
C79          C80   1.356       .  D
C79         C132   1.486       .  S
C79         C275   1.486       .  S
C80         C142   1.486       .  S
C80         C225   1.485       .  S
C81          C82   1.358       .  D
C81         C145   1.485       .  S
C81         C215   1.490       .  S
C82         C122   1.486       .  S
C82         C185   1.490       .  S
C83          C84   1.360       .  D
C83         C135   1.487       .  S
C83         C285   1.494       .  S
C84         C112   1.488       .  S
C84         C155   1.491       .  S
C85          C86   1.357       .  D
C85         C105   1.485       .  S
C85         C235   1.487       .  S
C86         C115   1.487       .  S
C86         C165   1.488       .  S
C87          C88   1.356       .  D
C87          C95   1.486       .  S
C87         C302   1.486       .  S
C88         C125   1.486       .  S
C88         C175   1.486       .  S
C89          C90   1.356       .  D
C89          C92   1.485       .  S
C89         C292   1.487       .  S
C90         C102   1.486       .  S
C90         C242   1.485       .  S
C91          C92   1.401   1_655  A
C91          C96   1.401       .  A
C91          H98   1.083       .  S
C92          C93   1.409       .  A
C93          C94   1.404   1_455  A
C93         F100   1.357       .  S
C94          C95   1.402       .  A
C94          H99   1.083       .  S
C95          C96   1.409       .  A
C96          F97   1.357       .  S
C101        C102   1.406       .  A
C101        C106   1.401       .  A
C101        H108   1.083       .  S
C102        C103   1.404       .  A
C103        C104   1.403       .  A
C103        F110   1.357       .  S
C104        C105   1.407       .  A
C104        H109   1.083       .  S
C105        C106   1.403       .  A
C106        F107   1.357       .  S
C111        C112   1.407       .  A
C111        C116   1.403   1_565  A
C111        H118   1.082       .  S
C112        C113   1.403   1_565  A
C113        C114   1.401       .  A
C113        F120   1.357   1_545  S
C114        C115   1.406       .  A
C114        H119   1.082       .  S
C115        C116   1.404       .  A
C116        F117   1.357       .  S
C121        C122   1.407   1_556  A
C121        C456   1.404   1_565  A
C121        H128   1.083       .  S
C122        C123   1.402   1_565  A
C123        C124   1.400       .  A
C123        F130   1.357       .  S
C124        C455   1.406   1_554  A
C124        H129   1.083       .  S
C125        C126   1.404       .  A
C125        C454   1.406       .  A
C126        C451   1.404   1_545  A
C126        F127   1.357       .  S
C131        C132   1.406       .  A
C131        C136   1.399       .  A
C131        H138   1.083       .  S
C132        C133   1.404       .  A
C133        C134   1.405   1_655  A
C133        F140   1.357       .  S
C134        C135   1.407       .  A
C134        H139   1.083       .  S
C135        C136   1.402   1_455  A
C136        F137   1.358   1_655  S
C141        C142   1.402       .  A
C141        C146   1.405       .  A
C141        H148   1.083       .  S
C142        C143   1.408       .  A
C143        C144   1.400       .  A
C143        F150   1.357       .  S
C144        C145   1.400       .  A
C144        H149   1.083       .  S
C145        C146   1.409       .  A
C146        F147   1.357       .  S
C151        C152   1.406       .  A
C151        C156   1.399       .  A
C151        H158   1.083       .  S
C152        C153   1.409       .  A
C153        C154   1.396       .  A
C153        F160   1.358       .  S
C154        C155   1.402       .  A
C154        H159   1.083       .  S
C155        C156   1.405       .  A
C156        F157   1.355       .  S
C161        C162   1.406       .  A
C161        C166   1.399       .  A
C161        H168   1.083       .  S
C162        C163   1.410       .  A
C163        C164   1.395       .  A
C163        F170   1.358       .  S
C164        C165   1.400       .  A
C164        H169   1.083       .  S
C165        C166   1.404       .  A
C166        F167   1.355       .  S
C171        C172   1.407       .  A
C171        C176   1.393       .  A
C171        H178   1.083       .  S
C172        C173   1.410       .  A
C173        C174   1.402       .  A
C173        F510   1.357       .  S
C174        C175   1.403       .  A
C174        H179   1.082       .  S
C175        C176   1.401       .  A
C176        F177   1.358       .  S
F180        C503   1.357       .  S
C181        C182   1.406       .  A
C181        C186   1.396       .  A
C181        H188   1.083       .  S
C182        C183   1.410       .  A
C183        C184   1.399       .  A
C183        F190   1.357   1_554  S
C184        C185   1.402       .  A
C184        H189   1.082   1_554  S
C185        C186   1.404       .  A
C186        F187   1.358       .  S
C191        C192   1.405   1_565  A
C191        C196   1.401       .  A
C191        H198   1.083       .  S
C192        C193   1.409       .  A
C193        C194   1.394       .  A
C193        F200   1.358       .  S
C194        C195   1.403       .  A
C194        H199   1.083       .  S
C195        C196   1.409   1_545  A
C196        F197   1.357       .  S
C201        C202   1.404       .  A
C201        C206   1.401       .  A
C201        H208   1.083       .  S
C202        C203   1.404   1_545  A
C203        C204   1.394       .  A
C203        F210   1.358       .  S
C204        C205   1.404   1_565  A
C204        H209   1.083       .  S
C205        C206   1.407       .  A
C206        F207   1.357       .  S
C211        C212   1.405       .  A
C211        C216   1.395       .  A
C211        H218   1.083       .  S
C212        C213   1.410       .  A
C213        C214   1.399       .  A
C213        F220   1.357       .  S
C214        C215   1.402       .  A
C214        H219   1.081       .  S
C215        C216   1.404       .  A
C216        F217   1.358   1_554  S
C221        C222   1.407       .  A
C221        C226   1.392       .  A
C221        H228   1.083       .  S
C222        C223   1.409       .  A
C223        C224   1.402       .  A
C223        F230   1.357       .  S
C224        C225   1.403       .  A
C224        H229   1.082       .  S
C225        C226   1.401       .  A
C226        F227   1.358       .  S
C231        C232   1.406       .  A
C231        C236   1.393       .  A
C231        H238   1.083       .  S
C232        C233   1.411       .  A
C233        C234   1.402       .  A
C233        F240   1.357       .  S
C234        C235   1.402       .  A
C234        H239   1.082       .  S
C235        C236   1.402       .  A
C236        F237   1.357       .  S
C241        C242   1.403       .  A
C241        C246   1.401       .  A
C241        H248   1.082       .  S
C242        C243   1.400       .  A
C243        C244   1.393       .  A
C243        F250   1.357       .  S
C244        C245   1.407       .  A
C244        H249   1.083       .  S
C245        C246   1.409       .  A
C246        F247   1.357       .  S
C251        C252   1.405       .  A
C251        C256   1.400       .  A
C251        H258   1.083       .  S
C252        C253   1.407       .  A
C253        C254   1.394       .  A
C253        F260   1.358       .  S
C254        C255   1.404       .  A
C254        H259   1.083       .  S
C255        C256   1.409       .  A
C256        F257   1.357       .  S
C261        C266   1.394       .  A
C261        C592   1.404       .  A
C261        H598   1.083       .  S
C262        C591   1.404       .  A
C262        C593   1.408       .  A
C263        C264   1.400       .  A
C263        C592   1.408       .  A
C263        F270   1.357       .  S
C264        C265   1.405       .  A
C264        H269   1.083       .  S
C265        C266   1.407       .  A
C266        F267   1.358       .  S
H268        C591   1.083   1_554  S
C271        C272   1.407       .  A
C271        C276   1.392       .  A
C271        H278   1.083       .  S
C272        C273   1.410       .  A
C273        C274   1.402       .  A
C273        F280   1.357       .  S
C274        C275   1.403       .  A
C274        H279   1.082       .  S
C275        C276   1.400       .  A
C276        F277   1.358       .  S
C281        C282   1.407       .  A
C281        C286   1.400       .  A
C281        H288   1.083       .  S
C282        C283   1.408       .  A
C283        C284   1.396       .  A
C283        F290   1.358       .  S
C284        C285   1.404       .  A
C284        H289   1.083       .  S
C285        C286   1.405       .  A
C286        F287   1.355       .  S
C291        C292   1.400       .  A
C291        C296   1.395       .  A
C291        H298   1.083       .  S
C292        C293   1.403       .  A
C293        C294   1.401       .  A
C293        F300   1.356       .  S
C294        C295   1.408       .  A
C294        H299   1.083       .  S
C295        C296   1.410       .  A
C296        F297   1.358       .  S
C301        C302   1.403       .  A
C301        C306   1.403       .  A
C301        H308   1.082       .  S
C302        C303   1.401       .  A
C303        C304   1.392       .  A
C303        F310   1.358       .  S
C304        C305   1.407       .  A
C304        H309   1.083       .  S
C305        C306   1.410       .  A
C306        F307   1.357       .  S
C311        C312   1.405       .  A
C311        C316   1.401       .  A
C311        H318   1.083       .  S
C312        C313   1.408   1_655  A
C313        C314   1.395       .  A
C313        F320   1.358       .  S
C314        C315   1.402   1_455  A
C314        H319   1.084       .  S
C315        C316   1.407       .  A
C316        F317   1.357       .  S
C321        C322   1.406       .  A
C321        C326   1.401       .  A
C321        H658   1.083       .  S
C322        C335   1.477   1_554  S
C322        C323   1.406   1_455  A
C323        C324   1.394       .  A
C323        F330   1.358       .  S
C324        C325   1.404   1_655  A
C324        H329   1.083       .  S
C325        C326   1.408       .  A
C326        F327   1.357       .  S
H328        C651   1.083       .  S
O331        C334   1.270       .  A
O331       Cd336   2.473       .  S
C332        O341   1.265       .  A
C332        O337   1.270       .  A
C332        C635   1.481       .  S
O333        C339   1.269       .  A
O333       Cd336   2.472   1_455  S
C334        O342   1.267   1_655  A
C334        C642   1.477       .  S
C335        O340   1.270       .  A
C335        O338   1.268   1_455  A
Cd336       O343   2.419   1_655  S
Cd336       O342   2.421   1_655  S
Cd336       O341   2.405       .  S
Cd336       O337   2.478       .  S
Cd336       O340   2.464   1_655  S
Cd336       O338   2.422       .  S
C339        O343   1.264       .  A
C339        C625   1.481       .  S
O344        C347   1.270   1_455  A
O344       Cd349   2.474   1_455  S
C345        O354   1.265       .  A
C345        O350   1.269       .  A
C345        C612   1.479       .  S
O346        C352   1.268       .  A
O346       Cd349   2.476       .  S
C347        O355   1.266       .  A
C347        C655   1.478   1_655  S
C348        O353   1.269       .  A
C348        O351   1.267   1_655  A
C348        C645   1.475       .  S
Cd349       O356   2.416       .  S
Cd349       O355   2.419       .  S
Cd349       O354   2.425   1_655  S
Cd349       O350   2.467   1_655  S
Cd349       O353   2.464       .  S
Cd349       O351   2.431   1_655  S
C352        O356   1.264       .  A
C352        C602   1.479       .  S
O357        C360   1.270       .  A
O357       Cd362   2.468       .  S
C358        O367   1.265       .  A
C358        O363   1.270       .  A
C358        C575   1.480       .  S
O359        C365   1.269       .  A
O359       Cd362   2.474       .  S
C360        O368   1.267       .  A
C360        C582   1.479       .  S
C361        O366   1.270       .  A
C361        O364   1.267       .  A
C361        C595   1.477       .  S
Cd362       O369   2.412       .  S
Cd362       O368   2.419       .  S
Cd362       O367   2.407       .  S
Cd362       O363   2.473       .  S
Cd362       O366   2.469       .  S
Cd362       O364   2.419       .  S
C365        O369   1.265       .  A
C365        C562   1.480       .  S
O370        C373   1.269       .  A
O370       Cd375   2.462       .  S
C371        O380   1.265       .  A
C371        O376   1.268       .  A
C371        C552   1.479       .  S
O372        C378   1.267       .  A
O372       Cd375   2.459       .  S
C373        O381   1.268       .  A
C373        C592   1.478       .  S
C374        O379   1.269       .  A
C374        O377   1.268       .  A
C374        C585   1.480       .  S
Cd375       O382   2.429       .  S
Cd375       O381   2.423       .  S
Cd375       O380   2.413       .  S
Cd375       O376   2.471       .  S
Cd375       O379   2.463       .  S
Cd375       O377   2.427       .  S
C378        O382   1.265       .  A
C378        C542   1.479       .  S
O383       Cd388   2.477       .  S
C384        O393   1.267   1_545  A
C384        O389   1.270       .  A
C384        C535   1.475       .  S
O385        C391   1.269   1_565  A
C386        O394   1.265       .  A
C386        C502   1.481       .  S
C387        O392   1.267       .  A
C387        O390   1.265       .  A
C387        C512   1.479       .  S
Cd388       O393   2.422   1_545  S
Cd388       O389   2.470       .  S
Cd388       O392   2.459   1_545  S
Cd388       O390   2.430   1_545  S
C391        O395   1.268       .  A
C391        C525   1.479       .  S
O396        C399   1.271   1_565  A
O396       Cd401   2.477   1_565  S
C397        O406   1.265       .  A
C397        O402   1.271       .  A
C397        C482   1.479       .  S
O398        C404   1.270       .  A
O398       Cd401   2.468       .  S
C399        O407   1.266       .  A
C399        C522   1.480       .  S
C400        O405   1.269       .  A
C400        O403   1.267   1_545  A
C400        C532   1.472       .  S
Cd401       O408   2.414       .  S
Cd401       O407   2.414       .  S
Cd401       O406   2.414   1_545  S
Cd401       O402   2.469   1_545  S
Cd401       O405   2.467       .  S
Cd401       O403   2.424   1_545  S
C404        O408   1.264       .  A
C404        C492   1.479       .  S
C409        C410   1.356       .  D
C409        C462   1.486       .  S
C409        C605   1.486       .  S
C410        C472   1.486       .  S
C410        C555   1.485       .  S
C411        C412   1.358       .  D
C411        C475   1.485       .  S
C411        C545   1.490       .  S
C412        C452   1.486       .  S
C412        C515   1.490       .  S
C413        C414   1.360       .  D
C413        C465   1.487       .  S
C413        C615   1.494       .  S
C414        C442   1.488       .  S
C414        C485   1.491       .  S
C415        C416   1.357       .  D
C415        C435   1.485       .  S
C415        C565   1.487       .  S
C416        C445   1.487       .  S
C416        C495   1.488       .  S
C417        C418   1.356       .  D
C417        C425   1.486       .  S
C417        C632   1.486       .  S
C418        C455   1.486       .  S
C418        C505   1.486       .  S
C419        C420   1.356       .  D
C419        C422   1.485       .  S
C419        C622   1.487       .  S
C420        C432   1.486       .  S
C420        C572   1.485       .  S
C421        C422   1.401   1_655  A
C421        C426   1.401       .  A
C421        H428   1.083       .  S
C422        C423   1.409       .  A
C423        C424   1.404   1_455  A
C423        F430   1.357       .  S
C424        C425   1.402       .  A
C424        H429   1.083       .  S
C425        C426   1.409       .  A
C426        F427   1.357       .  S
C431        C432   1.406       .  A
C431        C436   1.401       .  A
C431        H438   1.083       .  S
C432        C433   1.404       .  A
C433        C434   1.403       .  A
C433        F440   1.357       .  S
C434        C435   1.407       .  A
C434        H439   1.083       .  S
C435        C436   1.403       .  A
C436        F437   1.357       .  S
C441        C442   1.407       .  A
C441        C446   1.403   1_565  A
C441        H448   1.082       .  S
C442        C443   1.403   1_565  A
C443        C444   1.401       .  A
C443        F450   1.357   1_545  S
C444        C445   1.406       .  A
C444        H449   1.082       .  S
C445        C446   1.404       .  A
C446        F447   1.357       .  S
C451        C452   1.407       .  A
C451        H458   1.083       .  S
C452        C453   1.402   1_565  A
C453        C454   1.400       .  A
C453        F460   1.357       .  S
C454        H459   1.083       .  S
C455        C456   1.404       .  A
C456        F457   1.357       .  S
C461        C462   1.406       .  A
C461        C466   1.399       .  A
C461        H468   1.083       .  S
C462        C463   1.404       .  A
C463        C464   1.405   1_655  A
C463        F470   1.357       .  S
C464        C465   1.407       .  A
C464        H469   1.083       .  S
C465        C466   1.402   1_455  A
C466        F467   1.358   1_655  S
C471        C472   1.402       .  A
C471        C476   1.405       .  A
C471        H478   1.083       .  S
C472        C473   1.408       .  A
C473        C474   1.400       .  A
C473        F480   1.357       .  S
C474        C475   1.400       .  A
C474        H479   1.083       .  S
C475        C476   1.409       .  A
C476        F477   1.357       .  S
C481        C482   1.406       .  A
C481        C486   1.399       .  A
C481        H488   1.083       .  S
C482        C483   1.409       .  A
C483        C484   1.396       .  A
C483        F490   1.358       .  S
C484        C485   1.402       .  A
C484        H489   1.083       .  S
C485        C486   1.405       .  A
C486        F487   1.355       .  S
C491        C492   1.406       .  A
C491        C496   1.399       .  A
C491        H498   1.083       .  S
C492        C493   1.410       .  A
C493        C494   1.395       .  A
C493        F500   1.358       .  S
C494        C495   1.400       .  A
C494        H499   1.083       .  S
C495        C496   1.404       .  A
C496        F497   1.355       .  S
C501        C502   1.407       .  A
C501        C506   1.393       .  A
C501        H508   1.083       .  S
C502        C503   1.410   1_556  A
C503        C504   1.402       .  A
C504        C505   1.403   1_554  A
C504        H509   1.082       .  S
C505        C506   1.401       .  A
C506        F507   1.358       .  S
C511        C512   1.406       .  A
C511        C516   1.396       .  A
C511        H518   1.083       .  S
C512        C513   1.410       .  A
C513        C514   1.399       .  A
C513        F520   1.357       .  S
C514        C515   1.402       .  A
C514        H519   1.082       .  S
C515        C516   1.405       .  A
C516        F517   1.358       .  S
C521        C522   1.405   1_565  A
C521        C526   1.401       .  A
C521        H528   1.083       .  S
C522        C523   1.409       .  A
C523        C524   1.394       .  A
C523        F530   1.358       .  S
C524        C525   1.403       .  A
C524        H529   1.083       .  S
C525        C526   1.409   1_545  A
C526        F527   1.357       .  S
C531        C532   1.404       .  A
C531        C536   1.401       .  A
C531        H538   1.083       .  S
C532        C533   1.404   1_545  A
C533        C534   1.394       .  A
C533        F540   1.358       .  S
C534        C535   1.404   1_565  A
C534        H539   1.083       .  S
C535        C536   1.407       .  A
C536        F537   1.357       .  S
C541        C542   1.405       .  A
C541        C546   1.395       .  A
C541        H548   1.083       .  S
C542        C543   1.410       .  A
C543        C544   1.399       .  A
C543        F550   1.357       .  S
C544        C545   1.402       .  A
C544        H549   1.081       .  S
C545        C546   1.404       .  A
C546        F547   1.358       .  S
C551        C552   1.407       .  A
C551        C556   1.392       .  A
C551        H558   1.083       .  S
C552        C553   1.409       .  A
C553        C554   1.402       .  A
C553        F560   1.357       .  S
C554        C555   1.403       .  A
C554        H559   1.082       .  S
C555        C556   1.401       .  A
C556        F557   1.358       .  S
C561        C562   1.406       .  A
C561        C566   1.393       .  A
C561        H568   1.083       .  S
C562        C563   1.411       .  A
C563        C564   1.402       .  A
C563        F570   1.357       .  S
C564        C565   1.402       .  A
C564        H569   1.082       .  S
C565        C566   1.402       .  A
C566        F567   1.357       .  S
C571        C572   1.403       .  A
C571        C576   1.401       .  A
C571        H578   1.082       .  S
C572        C573   1.400       .  A
C573        C574   1.393       .  A
C573        F580   1.357       .  S
C574        C575   1.407       .  A
C574        H579   1.083       .  S
C575        C576   1.409       .  A
C576        F577   1.357       .  S
C581        C582   1.405       .  A
C581        C586   1.400       .  A
C581        H588   1.083       .  S
C582        C583   1.407       .  A
C583        C584   1.394       .  A
C583        F590   1.358       .  S
C584        C585   1.404       .  A
C584        H589   1.083       .  S
C585        C586   1.409       .  A
C586        F587   1.357       .  S
C591        C596   1.394       .  A
C593        C594   1.400       .  A
C593        F600   1.357       .  S
C594        C595   1.405       .  A
C594        H599   1.083       .  S
C595        C596   1.407       .  A
C596        F597   1.358       .  S
C601        C602   1.407       .  A
C601        C606   1.392       .  A
C601        H608   1.083       .  S
C602        C603   1.410       .  A
C603        C604   1.402       .  A
C603        F610   1.357       .  S
C604        C605   1.403       .  A
C604        H609   1.082       .  S
C605        C606   1.400       .  A
C606        F607   1.358       .  S
C611        C612   1.407       .  A
C611        C616   1.400       .  A
C611        H618   1.083       .  S
C612        C613   1.408       .  A
C613        C614   1.396       .  A
C613        F620   1.358       .  S
C614        C615   1.404       .  A
C614        H619   1.083       .  S
C615        C616   1.405       .  A
C616        F617   1.355       .  S
C621        C622   1.400       .  A
C621        C626   1.395       .  A
C621        H628   1.083       .  S
C622        C623   1.403       .  A
C623        C624   1.401       .  A
C623        F630   1.356       .  S
C624        C625   1.408       .  A
C624        H629   1.083       .  S
C625        C626   1.410       .  A
C626        F627   1.358       .  S
C631        C632   1.403       .  A
C631        C636   1.403       .  A
C631        H638   1.082       .  S
C632        C633   1.401       .  A
C633        C634   1.392       .  A
C633        F640   1.358   1_556  S
C634        C635   1.407       .  A
C634        H639   1.083   1_556  S
C635        C636   1.410       .  A
C636        F637   1.357       .  S
C641        C642   1.405       .  A
C641        C646   1.401       .  A
C641        H648   1.083       .  S
C642        C643   1.408   1_655  A
C643        C644   1.395       .  A
C643        F650   1.358       .  S
C644        C645   1.402   1_455  A
C644        H649   1.084       .  S
C645        C646   1.407       .  A
C646        F647   1.357       .  S
C651        C652   1.406       .  A
C651        C656   1.401       .  A
C652        C653   1.406   1_455  A
C653        C654   1.394       .  A
C653        F660   1.358       .  S
C654        C655   1.404   1_655  A
C654        H659   1.083       .  S
C655        C656   1.408       .  A
C656        F657   1.357       .  S
