geometry optimzed in LAMMPS
_audit_creation_date              2020-11-30 
_audit_creation_method            'lammps2cif' 
_symmetry_space_group_name_H-M    'P1' 
_symmetry_Int_Tables_number       1 
_symmetry_cell_setting            triclinic 
loop_ 
_symmetry_equiv_pos_as_xyz 
  x,y,z 
_cell_length_a                    48.457356 
_cell_length_b                    48.34898287118068 
_cell_length_c                    48.45570211523519 
_cell_angle_alpha                 90.36229491251558 
_cell_angle_beta                  90.47152977231075 
_cell_angle_gamma                 89.81448341532028 
loop_ 
_atom_site_label 
_atom_site_type_symbol 
_atom_site_fract_x 
_atom_site_fract_y 
_atom_site_fract_z 
_atom_site_charge 
O1          O  0.01332239  0.43030092  0.27786360    -0.81400
O2          O  0.97553468  0.53888854  0.29989563    -0.81400
O3          O  0.06044494  0.51656653  0.26624599    -0.81400
O4          O  0.94149317  0.47936696  0.26652742    -0.81400
O5          O  0.03182539  0.52838388  0.29841379    -0.81500
O6          O  0.97492361  0.46911144  0.29586888    -0.81400
O7          O  0.94317915  0.53480003  0.26765577    -0.81400
O8          O  0.04150795  0.46644303  0.27990669    -0.81400
C9          C  0.03571791  0.44110061  0.28637460     1.08300
C10         C  0.95041625  0.53996937  0.29252117     1.08200
C11         C  0.05630901  0.52653703  0.28999305     1.08300
C12         C  0.94929484  0.46932658  0.28964383     1.08200
O13         O  0.97164738  0.44593791  0.24186179    -0.81400
O14         O  0.03375038  0.55433900  0.24386810    -0.81500
O15         O  0.06460753  0.47469162  0.22988018    -0.81400
O16         O  0.97128964  0.53520173  0.21459018    -0.81400
O17         O  0.97919015  0.56591036  0.24706022    -0.81400
O18         O  0.02370393  0.45429693  0.22901390    -0.81400
O19         O  0.96805422  0.47923139  0.21216654    -0.81400
O20         O  0.03278970  0.51896539  0.21469936    -0.81400
Co21       Co  0.00080678  0.46508765  0.26438798     1.51500
Co22       Co  0.00469009  0.54426071  0.27217167     1.51700
Co23       Co  0.03392230  0.49261673  0.24588352     1.51600
Co24       Co  0.95839828  0.50705473  0.24043781     1.51500
O25         O  0.99654537  0.50567049  0.25674782    -1.43300
C26         C  0.96472073  0.45412317  0.21802963     1.08200
C27         C  0.03944102  0.54378123  0.22030843     1.08300
C28         C  0.04888966  0.45598069  0.22047787     1.08200
C29         C  0.97213936  0.56006773  0.22235020     1.08200
O30         O  0.56587029  0.02763488  0.27659842    -0.81400
O31         O  0.46479510  0.97872050  0.28776282    -0.81400
O32         O  0.47790866  0.06701551  0.25744512    -0.81400
O33         O  0.52607649  0.95106986  0.25867996    -0.81400
O34         O  0.46896525  0.03653138  0.28894869    -0.81500
O35         O  0.52974322  0.98534257  0.28889848    -0.81400
O36         O  0.47099543  0.94792958  0.25487123    -0.81400
O37         O  0.52782583  0.05279656  0.27267888    -0.81400
C38         C  0.55176390  0.04856050  0.28402122     1.08300
C39         C  0.46294501  0.95403651  0.27903923     1.08200
C40         C  0.47012922  0.06167138  0.28168332     1.08300
C41         C  0.53191564  0.95967546  0.28299805     1.08200
O42         O  0.55816124  0.98527037  0.23792317    -0.81400
O43         O  0.44406456  0.03698632  0.23371684    -0.81500
O44         O  0.52072221  0.07578073  0.22230371    -0.81400
O45         O  0.46991250  0.97395945  0.20225936    -0.81400
O46         O  0.43828409  0.98200735  0.23404902    -0.81400
O47         O  0.54651382  0.03780996  0.22451371    -0.81400
O48         O  0.52860200  0.97709567  0.20462961    -0.81400
O49         O  0.47890244  0.04084539  0.20464727    -0.81400
Co50       Co  0.53443634  0.01237423  0.25823959     1.51500
Co51       Co  0.45677525  0.00838674  0.26103668     1.51700
Co52       Co  0.50467607  0.04329428  0.23673944     1.51600
Co53       Co  0.49893742  0.96536564  0.23020732     1.51500
O54         O  0.49562644  0.00431451  0.24605655    -1.43300
C55         C  0.55328101  0.97652019  0.21366792     1.08200
C56         C  0.45347492  0.04418543  0.21032413     1.08300
C57         C  0.54246086  0.06283769  0.21554023     1.08200
C58         C  0.44484282  0.97360507  0.20994581     1.08200
O59         O  0.20274611  0.02857061  0.46742392    -0.81400
O60         O  0.23015134  0.93312486  0.51367389    -0.81400
O61         O  0.23893944  0.97455865  0.43736776    -0.81400
O62         O  0.23841846  0.02277124  0.55345213    -0.81400
O63         O  0.21041972  0.96702439  0.47211161    -0.81500
O64         O  0.20441417  0.02641433  0.52413579    -0.81400
O65         O  0.23038445  0.97131909  0.53957495    -0.81400
O66         O  0.23447995  0.02949870  0.43525622    -0.81400
C67         C  0.20958854  0.03318914  0.44294169     1.08300
C68         C  0.22315687  0.94585669  0.53552062     1.08200
C69         C  0.21598989  0.96575795  0.44643949     1.08300
C70         C  0.21318874  0.02795744  0.54872147     1.08200
O71         O  0.25440054  0.05945072  0.52286334    -0.81400
O72         O  0.26444840  0.94506605  0.47083472    -0.81500
O73         O  0.28803766  0.03592856  0.46157780    -0.81400
O74         O  0.28023720  0.98558732  0.56014575    -0.81400
O75         O  0.27871255  0.96027881  0.52135632    -0.81400
O76         O  0.25224571  0.06324281  0.46867242    -0.81400
O77         O  0.28915626  0.02991659  0.52536306    -0.81400
O78         O  0.29394480  0.97758459  0.46123475    -0.81400
Co79       Co  0.22866724  0.04200185  0.49539665     1.51500
Co80       Co  0.24243027  0.96672265  0.49811356     1.51700
Co81       Co  0.26392439  0.00456811  0.45140273     1.51600
Co82       Co  0.26178586  0.99942673  0.52880644     1.51500
O83         O  0.24916923  0.00611720  0.49045724    -1.43300
C84         C  0.27967887  0.05439735  0.52827206     1.08200
C85         C  0.28769620  0.95206600  0.46141046     1.08300
C86         C  0.27783706  0.06009854  0.46351860     1.08200
C87         C  0.28790775  0.96462967  0.54617565     1.08200
O88         O  0.02023378  0.29438912  0.53354862    -0.81400
O89         O  0.97003414  0.29714624  0.47251977    -0.81400
O90         O  0.06045654  0.26884975  0.47345187    -0.81400
O91         O  0.95603636  0.27415626  0.52985684    -0.81400
O92         O  0.02740324  0.30013273  0.46939308    -0.81500
O93         O  0.98098127  0.27434710  0.56846231    -0.81400
O94         O  0.94103618  0.26341873  0.47864058    -0.81400
O95         O  0.05681831  0.26742176  0.52852793    -0.81400
C96         C  0.04588631  0.29016965  0.53666859     1.08300
C97         C  0.94539130  0.28840373  0.47170916     1.08200
C98         C  0.05253430  0.29333965  0.46802251     1.08300
C99         C  0.95981838  0.28230707  0.55506461     1.08200
O100        O  0.97564364  0.22453138  0.54311206    -0.81400
O101        O  0.02818112  0.24850364  0.43839129    -0.81500
O102        O  0.03463199  0.21056400  0.52472248    -0.81400
O103        O  0.97119519  0.21210733  0.47506019    -0.81400
O104        O  0.97314175  0.24446635  0.44307942    -0.81400
O105        O  0.02525364  0.23984328  0.55752329    -0.81400
O106        O  0.93632173  0.22272460  0.51955575    -0.81400
O107        O  0.03735026  0.21434060  0.46716961    -0.81400
Co108      Co  0.99693039  0.26109612  0.53526854     1.51500
Co109      Co  0.99991682  0.27224951  0.45848717     1.51700
Co110      Co  0.04464600  0.24026683  0.49838293     1.51600
Co111      Co  0.96677800  0.24146512  0.50349672     1.51500
O112        O  0.00504247  0.25387572  0.49564781    -1.43300
C113        C  0.95098491  0.21495570  0.54002265     1.08200
C114        C  0.03680591  0.22387394  0.44281924     1.08300
C115        C  0.03481359  0.21646782  0.55018345     1.08200
C116        C  0.96887460  0.21946508  0.44992804     1.08200
O117        O  0.46699084  0.28092361  0.03951253    -0.81400
O118        O  0.56759562  0.26394033  0.99205207    -0.81400
O119        O  0.52743722  0.25060671  0.06771002    -0.81400
O120        O  0.47941739  0.24683154  0.95155991    -0.81400
O121        O  0.53115722  0.28011934  0.03315672    -0.81500
O122        O  0.47069188  0.27989639  0.98095269    -0.81400
O123        O  0.52932254  0.26143192  0.96638193    -0.81400
O124        O  0.47329250  0.24783451  0.07025302    -0.81400
C125        C  0.46649905  0.27244395  0.06432508     1.08300
C126        C  0.55424692  0.27005642  0.97023199     1.08200
C127        C  0.53336980  0.27484938  0.05884305     1.08300
C128        C  0.47062573  0.27116388  0.95621498     1.08200
O129        O  0.44569940  0.22473854  0.98227001    -0.81400
O130        O  0.55797635  0.22779456  0.03425573    -0.81500
O131        O  0.46954923  0.19492824  0.04440766    -0.81400
O132        O  0.52282644  0.20990751  0.94460907    -0.81400
O133        O  0.54664303  0.21325396  0.98369550    -0.81400
O134        O  0.43998864  0.22889973  0.03689277    -0.81400
O135        O  0.48071235  0.19503627  0.97986989    -0.81400
O136        O  0.52787625  0.19500602  0.04139667    -0.81400
Co137      Co  0.45843771  0.25362055  0.00997965     1.51500
Co138      Co  0.53523906  0.24842988  0.00706885     1.51700
Co139      Co  0.49963443  0.22199658  0.05324285     1.51600
Co140      Co  0.50602501  0.22651228  0.97627616     1.51500
O141        O  0.49662101  0.23763525  0.01467674    -1.43300
C142        C  0.45534689  0.20076015  0.97639290     1.08200
C143        C  0.55246540  0.20350109  0.04197923     1.08300
C144        C  0.44479444  0.20393821  0.04328183     1.08200
C145        C  0.54418370  0.20387550  0.95871530     1.08200
O146        O  0.29665281  0.53124190  0.02101508    -0.81400
O147        O  0.30021857  0.46933560  0.97105642    -0.81400
O148        O  0.27389624  0.47174625  0.06163276    -0.81400
O149        O  0.27377570  0.52449879  0.95472025    -0.81400
O150        O  0.30483478  0.46842256  0.02856474    -0.81500
O151        O  0.27610600  0.56390475  0.97854661    -0.81400
O152        O  0.26462670  0.47266092  0.94350553    -0.81400
O153        O  0.26865371  0.52633105  0.05629936    -0.81400
C154        C  0.29208787  0.53318902  0.04683716     1.08300
C155        C  0.29013033  0.46740826  0.94699871     1.08200
C156        C  0.29847820  0.46655139  0.05378015     1.08300
C157        C  0.28230590  0.54969271  0.95724607     1.08200
O158        O  0.22661487  0.53839087  0.97319701    -0.81400
O159        O  0.25553627  0.43599636  0.03032089    -0.81500
O160        O  0.21341279  0.52049305  0.03351644    -0.81400
O161        O  0.21491163  0.46818223  0.97477336    -0.81400
O162        O  0.24888922  0.43762240  0.97600770    -0.81400
O163        O  0.24180465  0.55380429  0.02308343    -0.81400
O164        O  0.22217613  0.51046942  0.93695636    -0.81400
O165        O  0.21992475  0.46360619  0.03722472    -0.81400
Co166      Co  0.26363375  0.53142537  0.99599018     1.51500
Co167      Co  0.27711580  0.45544706  0.00152056     1.51700
Co168      Co  0.24383984  0.49530075  0.04469724     1.51600
Co169      Co  0.24254793  0.49767542  0.96803209     1.51500
O170        O  0.25736596  0.49212595  0.00558957    -1.43300
C171        C  0.21517378  0.53246427  0.94956167     1.08200
C172        C  0.23057560  0.43974139  0.03731607     1.08300
C173        C  0.21896436  0.54602833  0.03306679     1.08200
C174        C  0.22328450  0.44321348  0.97266565     1.08200
O175        O  0.52989875  0.06040375  0.72305107    -0.81400
O176        O  0.46832982  0.95750939  0.70631240    -0.81400
O177        O  0.52641324  0.97361976  0.68583678    -0.81400
O178        O  0.46653380  0.02441742  0.69269818    -0.81400
O179        O  0.51949218  0.94239721  0.71720002    -0.81500
O180        O  0.47401589  0.05839802  0.72273819    -0.81400
O181        O  0.43063814  0.98353504  0.70797107    -0.81400
O182        O  0.53230731  0.03069499  0.68859387    -0.81400
C183        C  0.53757100  0.05425358  0.69863025     1.08300
C184        C  0.44317667  0.96260005  0.69839929     1.08200
C185        C  0.52657800  0.94853369  0.69290052     1.08300
C186        C  0.46572972  0.05001788  0.69909471     1.08200
O187        O  0.47380282  0.03167149  0.77637533    -0.81400
O188        O  0.52269223  0.96746011  0.77075330    -0.81500
O189        O  0.56180558  0.02461397  0.74048624    -0.81400
O190        O  0.45434465  0.97036916  0.75674146    -0.81400
O191        O  0.48007048  0.93242462  0.75488044    -0.81400
O192        O  0.53245317  0.03152280  0.77440195    -0.81400
O193        O  0.44205437  0.02425116  0.74517232    -0.81400
O194        O  0.55504030  0.97064468  0.73921792    -0.81400
Co195      Co  0.50241118  0.04284446  0.74888502     1.51500
Co196      Co  0.49467683  0.96554520  0.74050669     1.51700
Co197      Co  0.54110998  0.00008693  0.71368350     1.51600
Co198      Co  0.46387661  0.99708988  0.72306050     1.51500
O199        O  0.50356313  0.00448837  0.73160503    -1.43300
C200        C  0.44860766  0.03295371  0.76901747     1.08200
C201        C  0.54794862  0.96532678  0.76390156     1.08300
C202        C  0.55705189  0.03134929  0.76549758     1.08200
C203        C  0.45862097  0.94460053  0.76347445     1.08200
O204        O  0.72559364  0.53370831  0.04444006    -0.81400
O205        O  0.73479728  0.46784964  0.94320448    -0.81400
O206        O  0.70180232  0.52960245  0.97695788    -0.81400
O207        O  0.70652322  0.47396335  0.03254555    -0.81400
O208        O  0.73071801  0.52278922  0.94250489    -0.81500
O209        O  0.73989519  0.48446564  0.06144254    -0.81400
O210        O  0.70340244  0.46295241  0.97534938    -0.81400
O211        O  0.71702372  0.56896961  0.01622266    -0.81400
C212        C  0.71390357  0.55720029  0.03943311     1.08300
C213        C  0.71130495  0.45920856  0.95063513     1.08200
C214        C  0.70677976  0.52963022  0.95112596     1.08300
C215        C  0.71577075  0.47454983  0.05700437     1.08200
O216        O  0.79109723  0.48353214  0.03006925    -0.81400
O217        O  0.78597322  0.52771361  0.96670600    -0.81500
O218        O  0.76997717  0.55126104  0.02278794    -0.81400
O219        O  0.75709680  0.43873246  0.97877393    -0.81400
O220        O  0.78830433  0.46986283  0.96798958    -0.81400
O221        O  0.77944511  0.52972681  0.06189253    -0.81400
O222        O  0.76174022  0.44867061  0.03236301    -0.81400
O223        O  0.75296430  0.55805673  0.97230280    -0.81400
Co224      Co  0.75969966  0.50943253  0.03386478     1.51500
Co225      Co  0.76003002  0.49732971  0.95773013     1.51700
Co226      Co  0.73416577  0.53655402  0.00189486     1.51600
Co227      Co  0.73201873  0.45872984  0.00459523     1.51500
O228        O  0.74607169  0.49729237  0.99681201    -1.43300
C229        C  0.78613678  0.45826640  0.03492904     1.08200
C230        C  0.77677398  0.55197598  0.96333056     1.08300
C231        C  0.78299983  0.55049850  0.04622642     1.08200
C232        C  0.78036474  0.44493656  0.96857090     1.08200
O233        O  0.05465833  0.73790457  0.53689271    -0.81400
O234        O  0.93759797  0.73817093  0.48041882    -0.81400
O235        O  0.96620758  0.70757323  0.53684960    -0.81400
O236        O  0.02651380  0.70538028  0.47983223    -0.81400
O237        O  0.93630487  0.74139748  0.53414095    -0.81500
O238        O  0.05531327  0.73986664  0.48319249    -0.81400
O239        O  0.96778781  0.70442597  0.47870856    -0.81400
O240        O  0.02281261  0.70592256  0.53806966    -0.81400
C241        C  0.04759637  0.71294351  0.54183377     1.08300
C242        C  0.94338356  0.71314831  0.47444477     1.08200
C243        C  0.94184871  0.71625732  0.53933827     1.08300
C244        C  0.05030654  0.71520219  0.47568388     1.08200
O245        O  0.02632803  0.79231409  0.48039075    -0.81400
O246        O  0.96604674  0.79423813  0.53422999    -0.81500
O247        O  0.02258593  0.75891017  0.56778974    -0.81400
O248        O  0.96988693  0.75590729  0.44856754    -0.81400
O249        O  0.96531797  0.79150475  0.47595258    -0.81400
O250        O  0.02595326  0.79285642  0.53892154    -0.81400
O251        O  0.02295887  0.75775405  0.45093188    -0.81400
O252        O  0.96884483  0.76151093  0.56530336    -0.81400
Co253      Co  0.03661675  0.76554744  0.50988864     1.51500
Co254      Co  0.95537320  0.76606558  0.50643172     1.51700
Co255      Co  0.99510911  0.73372020  0.54829644     1.51600
Co256      Co  0.99678543  0.73126533  0.46861709     1.51500
O257        O  0.99597485  0.74949117  0.50818671    -1.43300
C258        C  0.02751610  0.78315553  0.45576204     1.08200
C259        C  0.96429115  0.78670670  0.55910383     1.08300
C260        C  0.02772473  0.78424818  0.56348134     1.08200
C261        C  0.96223069  0.78073774  0.45221401     1.08200
O262        O  0.01315921  0.56420488  0.73235610    -0.81400
O263        O  0.97375384  0.45745626  0.71651927    -0.81400
O264        O  0.06019872  0.47759381  0.74544839    -0.81400
O265        O  0.94112567  0.51622202  0.74470240    -0.81400
O266        O  0.03025807  0.46485634  0.71459025    -0.81500
O267        O  0.97521840  0.52431605  0.71587490    -0.81400
O268        O  0.94229364  0.46147852  0.74901661    -0.81400
O269        O  0.03939009  0.52643043  0.73003404    -0.81400
C270        C  0.03529828  0.55232296  0.72491992     1.08300
C271        C  0.94932065  0.45443734  0.72473925     1.08200
C272        C  0.05528002  0.46867711  0.72131270     1.08300
C273        C  0.94950196  0.52363275  0.72093145     1.08200
O274        O  0.97126589  0.55198004  0.76726601    -0.81400
O275        O  0.03365239  0.44240655  0.77120896    -0.81500
O276        O  0.06587165  0.52171363  0.77876496    -0.81400
O277        O  0.96949578  0.46476009  0.80198188    -0.81400
O278        O  0.97913146  0.43279440  0.77092080    -0.81400
O279        O  0.02569299  0.54314013  0.78183186    -0.81400
O280        O  0.96682930  0.52167002  0.79982367    -0.81400
O281        O  0.03473479  0.47907652  0.79872570    -0.81400
Co282      Co  0.00084298  0.53059561  0.74758872     1.51500
Co283      Co  0.00376215  0.45196010  0.74341882     1.51700
Co284      Co  0.03433315  0.50307855  0.76584870     1.51600
Co285      Co  0.95761510  0.49122174  0.77371543     1.51500
O286        O  0.99618667  0.49072980  0.75772656    -1.43300
C287        C  0.96275218  0.54583305  0.79103855     1.08200
C288        C  0.04023199  0.45379988  0.79419195     1.08300
C289        C  0.05203532  0.54225314  0.78722802     1.08200
C290        C  0.97101868  0.43960416  0.79508626     1.08200
O291        O  0.56207406  0.71982107  0.00540423    -0.81400
O292        O  0.47282031  0.71870302  0.95881920    -0.81400
O293        O  0.49164302  0.72029533  0.03780765    -0.81400
O294        O  0.52415968  0.71908667  0.95644465    -0.81400
O295        O  0.45434274  0.73229199  0.01510271    -0.81500
O296        O  0.56069663  0.74237947  0.95251292    -0.81400
O297        O  0.48623804  0.74156555  0.92248277    -0.81400
O298        O  0.54468387  0.73206819  0.04584974    -0.81400
C299        C  0.55962818  0.71628307  0.03116594     1.08300
C300        C  0.47518355  0.71980973  0.93207789     1.08200
C301        C  0.46582339  0.72010718  0.03560398     1.08300
C302        C  0.54712307  0.72164759  0.94580423     1.08200
O303        O  0.54953148  0.79488120  0.97704661    -0.81400
O304        O  0.46604614  0.78961385  0.00482523    -0.81500
O305        O  0.53224910  0.79155833  0.04469108    -0.81400
O306        O  0.47484310  0.78717084  0.95330323    -0.81400
O307        O  0.43838203  0.76337296  0.96504038    -0.81400
O308        O  0.56804585  0.77274037  0.02579191    -0.81400
O309        O  0.52941683  0.78076870  0.93904254    -0.81400
O310        O  0.47565696  0.77636988  0.04639296    -0.81400
Co311      Co  0.55572745  0.75742113  0.99042667     1.51500
Co312      Co  0.47268700  0.75440222  0.98400451     1.51700
Co313      Co  0.51113498  0.75556366  0.04025738     1.51600
Co314      Co  0.50139709  0.75380048  0.95729924     1.51500
O315        O  0.51341397  0.75649070  0.99749299    -1.43300
C316        C  0.54485761  0.79842806  0.95183185     1.08200
C317        C  0.46034617  0.78955045  0.02997733     1.08300
C318        C  0.55786171  0.79222661  0.03915034     1.08200
C319        C  0.44833928  0.78423411  0.95266644     1.08200
O320        O  0.81973245  0.31342390  0.63297685    -0.81400
O321        O  0.77604475  0.41885943  0.67089737    -0.81400
O322        O  0.81065395  0.35132895  0.68269025    -0.81400
O323        O  0.75843297  0.34081878  0.62362807    -0.81400
O324        O  0.82151256  0.39447123  0.69155626    -0.81500
O325        O  0.78545200  0.32783289  0.59042827    -0.81400
O326        O  0.75335454  0.38190847  0.65789372    -0.81400
O327        O  0.85389185  0.32240445  0.66185513    -0.81400
C328        C  0.83822319  0.30498420  0.65055964     1.08300
C329        C  0.75870938  0.39981219  0.67584221     1.08200
C330        C  0.81607404  0.37026296  0.70014370     1.08300
C331        C  0.76450540  0.32358181  0.60519079     1.08200
O332        O  0.81698927  0.37604591  0.57665523    -0.81400
O333        O  0.85297514  0.41137264  0.64265941    -0.81500
O334        O  0.86060500  0.35186447  0.61603469    -0.81400
O335        O  0.76377510  0.42345620  0.61624946    -0.81400
O336        O  0.80742674  0.43402001  0.62111910    -0.81400
O337        O  0.84148541  0.32573156  0.58345652    -0.81400
O338        O  0.77160279  0.37887533  0.57870944    -0.81400
O339        O  0.86116497  0.37465395  0.66634751    -0.81400
Co340      Co  0.81866215  0.34794661  0.60609955     1.51500
Co341      Co  0.81410094  0.41267914  0.65457491     1.51700
Co342      Co  0.83254665  0.35175026  0.64849538     1.51600
Co343      Co  0.76426235  0.38105043  0.61982060     1.51500
O344        O  0.80444132  0.37738990  0.63253568    -1.43300
C345        C  0.79383132  0.37909981  0.56476399     1.08200
C346        C  0.86868974  0.39811915  0.65848752     1.08300
C347        C  0.86291328  0.33561126  0.59493479     1.08200
C348        C  0.78333326  0.44105897  0.61458766     1.08200
O349        O  0.58357709  0.32178829  0.84999273    -0.81400
O350        O  0.62743718  0.42292866  0.81391274    -0.81400
O351        O  0.65807111  0.36002907  0.87218948    -0.81400
O352        O  0.58139351  0.38014520  0.78057793    -0.81400
O353        O  0.64079598  0.39697245  0.85707111    -0.81500
O354        O  0.58274066  0.37519458  0.82570641    -0.81400
O355        O  0.62471134  0.41805388  0.76984917    -0.81400
O356        O  0.62427465  0.31956237  0.87126029    -0.81400
C357        C  0.59845165  0.31429627  0.87095600     1.08300
C358        C  0.62439431  0.43366242  0.79078955     1.08200
C359        C  0.65385005  0.38522564  0.87576310     1.08300
C360        C  0.56951247  0.38199788  0.80404891     1.08200
O361        O  0.58388002  0.32730473  0.78793877    -0.81400
O362        O  0.69264034  0.37469099  0.82994137    -0.81500
O363        O  0.66080999  0.31156921  0.83119956    -0.81400
O364        O  0.65976516  0.37457704  0.75493266    -0.81400
O365        O  0.67766448  0.40503307  0.78472175    -0.81400
O366        O  0.62139565  0.30397710  0.81332899    -0.81400
O367        O  0.61809219  0.33671077  0.76033554    -0.81400
O368        O  0.67649824  0.33199668  0.83682214    -0.81400
Co369      Co  0.60553562  0.34162434  0.82154484     1.51500
Co370      Co  0.65853075  0.39811047  0.82079544     1.51700
Co371      Co  0.63612706  0.34301844  0.84114380     1.51600
Co372      Co  0.62161881  0.37628540  0.76873005     1.51500
O373        O  0.63786306  0.36489880  0.80601160    -1.43300
C374        C  0.59654897  0.32310577  0.76523309     1.08200
C375        C  0.69689782  0.34876813  0.83362150     1.08300
C376        C  0.64453269  0.29461900  0.81988637     1.08200
C377        C  0.67879863  0.39127735  0.76223799     1.08200
O378        O  0.61761279  0.17925983  0.68985399    -0.81400
O379        O  0.67089426  0.22469687  0.58734348    -0.81400
O380        O  0.68994109  0.15260564  0.65143696    -0.81400
O381        O  0.61886770  0.25065175  0.66042319    -0.81400
O382        O  0.69141116  0.19011561  0.62539397    -0.81500
O383        O  0.58556548  0.22252853  0.67294569    -0.81400
O384        O  0.65951161  0.25018967  0.62262153    -0.81400
O385        O  0.66028505  0.19095825  0.68023019    -0.81400
C386        C  0.64225551  0.18495746  0.69804520     1.08300
C387        C  0.67579401  0.24507916  0.60310083     1.08200
C388        C  0.70376205  0.17113049  0.63954307     1.08300
C389        C  0.59936100  0.24464766  0.67643303     1.08200
O390        O  0.57193861  0.19266793  0.62207714    -0.81400
O391        O  0.67586244  0.17023597  0.57591705    -0.81500
O392        O  0.63688680  0.13993848  0.66178951    -0.81400
O393        O  0.61988363  0.23447018  0.57865946    -0.81400
O394        O  0.62344106  0.18934197  0.57603238    -0.81400
O395        O  0.60085535  0.14932540  0.63789467    -0.81400
O396        O  0.57731488  0.23727322  0.61967710    -0.81400
O397        O  0.65537469  0.14624747  0.60849312    -0.81400
Co398      Co  0.59583686  0.18641440  0.65405036     1.51500
Co399      Co  0.65473963  0.18934133  0.60225491     1.51700
Co400      Co  0.65697113  0.17175273  0.64388318     1.51600
Co401      Co  0.61966962  0.24057892  0.62099023     1.51500
O402        O  0.62848182  0.20048780  0.63231274    -1.43300
C403        C  0.56151548  0.21618339  0.61867708     1.08200
C404        C  0.66916061  0.14706984  0.58567693     1.08300
C405        C  0.61351023  0.13252300  0.65287468     1.08200
C406        C  0.61942193  0.21215400  0.56418832     1.08200
O407        O  0.89547429  0.19285222  0.69125946    -0.81400
O408        O  0.83327856  0.11449092  0.73583791    -0.81400
O409        O  0.83035196  0.13389836  0.64672998    -0.81400
O410        O  0.90157828  0.12960079  0.75040334    -0.81400
O411        O  0.81802543  0.13622607  0.68906106    -0.81500
O412        O  0.87348158  0.15985967  0.73105756    -0.81400
O413        O  0.86457919  0.08649431  0.75209488    -0.81400
O414        O  0.85989228  0.17368562  0.66964994    -0.81400
C415        C  0.87261781  0.19534747  0.67864592     1.08300
C416        C  0.84111082  0.09845162  0.75442566     1.08200
C417        C  0.81329782  0.14207068  0.66442248     1.08300
C418        C  0.88616286  0.15081791  0.75213493     1.08200
O419        O  0.92730737  0.14986406  0.70929997    -0.81400
O420        O  0.83410761  0.08445402  0.65936028    -0.81500
O421        O  0.87617222  0.14842177  0.62340712    -0.81400
O422        O  0.89192535  0.06176027  0.70468112    -0.81400
O423        O  0.84662752  0.06218534  0.70882543    -0.81400
O424        O  0.90937140  0.15226126  0.65469685    -0.81400
O425        O  0.93078122  0.10492120  0.70455395    -0.81400
O426        O  0.87478692  0.09578564  0.64230886    -0.81400
Co427      Co  0.88918856  0.15423227  0.69395935     1.51500
Co428      Co  0.83486929  0.10062836  0.69822949     1.51700
Co429      Co  0.87011932  0.13300575  0.65791755     1.51600
Co430      Co  0.89628476  0.09673815  0.72551537     1.51500
O431        O  0.87293626  0.11636488  0.69554773    -1.43300
C432        C  0.94217566  0.12856929  0.70583973     1.08200
C433        C  0.85284941  0.08161581  0.64103709     1.08300
C434        C  0.90061664  0.15514128  0.62929138     1.08200
C435        C  0.86916759  0.04898365  0.70573042     1.08200
O436        O  0.66273490  0.16427238  0.91087952    -0.81400
O437        O  0.68712397  0.07397596  0.86756089    -0.81400
O438        O  0.64360941  0.09431354  0.84792671    -0.81400
O439        O  0.71840016  0.10505145  0.93026923    -0.81400
O440        O  0.67365347  0.08466862  0.81538103    -0.81500
O441        O  0.71276758  0.15034906  0.93542341    -0.81400
O442        O  0.72769618  0.06865440  0.88609479    -0.81400
O443        O  0.63889180  0.12835772  0.89686158    -0.81400
C444        C  0.64071134  0.14998895  0.91143850     1.08300
C445        C  0.70530717  0.05849914  0.87766743     1.08200
C446        C  0.64934415  0.08191131  0.82503977     1.08300
C447        C  0.71468690  0.12600606  0.94566931     1.08200
O448        O  0.73958354  0.17448112  0.88630797    -0.81400
O449        O  0.69830213  0.13684233  0.81513161    -0.81500
O450        O  0.65083259  0.16675127  0.85848029    -0.81400
O451        O  0.76047332  0.10935908  0.86050654    -0.81400
O452        O  0.73095847  0.09089622  0.83048855    -0.81400
O453        O  0.69195391  0.18464371  0.86301890    -0.81400
O454        O  0.75980501  0.14106995  0.90859035    -0.81400
O455        O  0.65556492  0.13956513  0.82574813    -0.81400
Co456      Co  0.70209351  0.16547674  0.89716608     1.51500
Co457      Co  0.69424845  0.10612801  0.84303198     1.51700
Co458      Co  0.66319693  0.12779663  0.86490690     1.51600
Co459      Co  0.73828581  0.10757817  0.89480388     1.51500
O460        O  0.70503008  0.12835549  0.87605601    -1.43300
C461        C  0.76002142  0.16542048  0.89919936     1.08200
C462        C  0.67410766  0.14445202  0.80822754     1.08300
C463        C  0.66754012  0.18632410  0.85420691     1.08200
C464        C  0.75554065  0.09770066  0.83745383     1.08200
O465        O  0.81827330  0.29075832  0.86538879    -0.81400
O466        O  0.88226666  0.25683678  0.81975387    -0.81400
O467        O  0.86312279  0.34900687  0.82648639    -0.81400
O468        O  0.86670608  0.24267506  0.89015223    -0.81400
O469        O  0.86173791  0.30759190  0.80799145    -0.81500
O470        O  0.84027251  0.27348038  0.91121061    -0.81400
O471        O  0.90776088  0.23944572  0.85330935    -0.81400
O472        O  0.82600940  0.33125555  0.85319612    -0.81400
C473        C  0.80934397  0.31159882  0.85363429     1.08300
C474        C  0.89333558  0.23637107  0.83145343     1.08200
C475        C  0.85586693  0.33300931  0.80657684     1.08300
C476        C  0.84486931  0.24875876  0.90295387     1.08200
O477        O  0.87734446  0.32123608  0.91356441    -0.81400
O478        O  0.91253569  0.33196436  0.82690125    -0.81500
O479        O  0.85064864  0.36626105  0.88539038    -0.81400
O480        O  0.93442989  0.28588734  0.88175867    -0.81400
O481        O  0.93465479  0.28123908  0.83658617    -0.81400
O482        O  0.82541790  0.33399361  0.90721315    -0.81400
O483        O  0.89525731  0.28128165  0.92322320    -0.81400
O484        O  0.90528081  0.34658269  0.86953127    -0.81400
Co485      Co  0.84912541  0.30661965  0.88766475     1.51500
Co486      Co  0.89633638  0.29419960  0.82473384     1.51700
Co487      Co  0.86627146  0.33416610  0.86563505     1.51600
Co488      Co  0.89999040  0.26483091  0.88561745     1.51500
O489        O  0.87821091  0.29309803  0.86203530    -1.43300
C490        C  0.88680548  0.30463870  0.93109820     1.08200
C491        C  0.91831827  0.34817150  0.84682338     1.08300
C492        C  0.83203567  0.35971608  0.90327307     1.08200
C493        C  0.94735501  0.28612276  0.85927166     1.08200
O494        O  0.31242954  0.20217797  0.63404468    -0.81400
O495        O  0.37758926  0.23003192  0.67432784    -0.81400
O496        O  0.35311685  0.17502231  0.68125424    -0.81400
O497        O  0.35291133  0.25940824  0.61395130    -0.81400
O498        O  0.39613515  0.18279435  0.69610945    -0.81500
O499        O  0.32604043  0.23097595  0.58984659    -0.81400
O500        O  0.40068844  0.25607663  0.64613157    -0.81400
O501        O  0.31687582  0.16065414  0.64801984    -0.81400
C502        C  0.30184051  0.18128184  0.64524098     1.08300
C503        C  0.39131790  0.25162253  0.66996592     1.08200
C504        C  0.37063576  0.17783737  0.70135488     1.08300
C505        C  0.33027872  0.25424980  0.60162107     1.08200
O506        O  0.36341740  0.18832891  0.57101846    -0.81400
O507        O  0.41102961  0.16036320  0.64517096    -0.81500
O508        O  0.34283111  0.14506396  0.60531924    -0.81400
O509        O  0.42566018  0.22202791  0.60615812    -0.81400
O510        O  0.43053750  0.21061327  0.65069809    -0.81400
O511        O  0.31250137  0.17291871  0.58490896    -0.81400
O512        O  0.37971760  0.23074740  0.56976339    -0.81400
O513        O  0.37599202  0.13418261  0.64947999    -0.81400
Co514      Co  0.33987725  0.19443131  0.60370598     1.51500
Co515      Co  0.39199059  0.19513260  0.65854854     1.51700
Co516      Co  0.35542919  0.16710504  0.63966578     1.51600
Co517      Co  0.38873072  0.23967266  0.60968168     1.51500
O518        O  0.37311535  0.20353637  0.62446856    -1.43300
C519        C  0.37182406  0.20880745  0.55744406     1.08200
C520        C  0.40143745  0.13640835  0.64906562     1.08300
C521        C  0.32346137  0.14896230  0.58717547     1.08200
C522        C  0.44094150  0.21586170  0.62681929     1.08200
O523        O  0.14754484  0.35787462  0.59159062    -0.81400
O524        O  0.21651195  0.43637426  0.65349920    -0.81400
O525        O  0.14370933  0.41064378  0.63263568    -0.81400
O526        O  0.20077598  0.39452935  0.57120310    -0.81400
O527        O  0.16648634  0.41845162  0.67144874    -0.81500
O528        O  0.20024400  0.34963171  0.57056984    -0.81400
O529        O  0.21039933  0.43537219  0.60832956    -0.81400
O530        O  0.11886106  0.35977888  0.62674192    -0.81400
C531        C  0.12289055  0.35475258  0.60138353     1.08300
C532        C  0.21233016  0.44887183  0.63067015     1.08200
C533        C  0.14561296  0.42311756  0.65580042     1.08300
C534        C  0.20026577  0.37232593  0.55758879     1.08200
O535        O  0.22121146  0.33253233  0.62348246    -0.81400
O536        O  0.19163619  0.36456501  0.68428997    -0.81500
O537        O  0.16272653  0.32921811  0.64099250    -0.81400
O538        O  0.25641978  0.40457393  0.63246214    -0.81400
O539        O  0.23962410  0.38121654  0.66667440    -0.81400
O540        O  0.17390903  0.30971941  0.60163535    -0.81400
O541        O  0.24518395  0.36049534  0.59734102    -0.81400
O542        O  0.14856747  0.36990443  0.67381710    -0.81400
Co543      Co  0.18569556  0.34673309  0.60957173     1.51500
Co544      Co  0.20332216  0.39887862  0.66668235     1.51700
Co545      Co  0.15561360  0.37128909  0.63325670     1.51600
Co546      Co  0.22585729  0.39789119  0.60353978     1.51500
O547        O  0.19535300  0.38294875  0.62868599    -1.43300
C548        C  0.24294535  0.33750259  0.61022627     1.08200
C549        C  0.16687152  0.36232286  0.69091348     1.08300
C550        C  0.16370025  0.30746385  0.62554145     1.08200
C551        C  0.26007262  0.39135034  0.65485298     1.08200
O552        O  0.37694402  0.31586858  0.80647581    -0.81400
O553        O  0.33592179  0.37815278  0.75830743    -0.81400
O554        O  0.33501728  0.35814895  0.85042527    -0.81400
O555        O  0.39852335  0.35693201  0.74654215    -0.81400
O556        O  0.32117094  0.35795595  0.80731287    -0.81500
O557        O  0.42021536  0.33159823  0.77798720    -0.81400
O558        O  0.36758276  0.40428981  0.74157019    -0.81400
O559        O  0.36500587  0.32545395  0.84790506    -0.81400
C560        C  0.36628340  0.30798923  0.82849766     1.08300
C561        C  0.34542320  0.39089928  0.73804789     1.08200
C562        C  0.31650660  0.35298111  0.83240113     1.08300
C563        C  0.40853399  0.33412443  0.75444646     1.08200
O564        O  0.43375098  0.37310331  0.82157021    -0.81400
O565        O  0.33683534  0.40963079  0.83411524    -0.81500
O566        O  0.40736994  0.35102556  0.86525076    -0.81400
O567        O  0.40007064  0.42768470  0.78606050    -0.81400
O568        O  0.35449242  0.43058936  0.78596697    -0.81400
O569        O  0.42494715  0.32040755  0.83638868    -0.81400
O570        O  0.43836496  0.38556882  0.77908298    -0.81400
O571        O  0.36996396  0.39894768  0.86334996    -0.81400
Co572      Co  0.40372719  0.34566572  0.81332592     1.51500
Co573      Co  0.33999176  0.39245937  0.79633549     1.51700
Co574      Co  0.37484371  0.36515642  0.84137704     1.51600
Co575      Co  0.39971497  0.39235451  0.76643116     1.51500
O576        O  0.37858049  0.37482557  0.79935416    -1.43300
C577        C  0.44887350  0.38217970  0.80268895     1.08200
C578        C  0.34835861  0.41254203  0.85758961     1.08300
C579        C  0.42291022  0.32960835  0.86104719     1.08200
C580        C  0.37825929  0.44164117  0.78964102     1.08200
O581        O  0.17892524  0.33501064  0.91472568    -0.81400
O582        O  0.08169576  0.29988174  0.84133293    -0.81400
O583        O  0.13924959  0.38187923  0.85231320    -0.81400
O584        O  0.11374550  0.29487949  0.92887149    -0.81400
O585        O  0.10333366  0.35340180  0.85100657    -0.81500
O586        O  0.15847484  0.28629205  0.93219839    -0.81400
O587        O  0.07812163  0.30169210  0.88559469    -0.81400
O588        O  0.14137115  0.35815371  0.90336798    -0.81400
C589        C  0.16273775  0.35560087  0.91846000     1.08300
C590        C  0.06658473  0.30032674  0.86232656     1.08200
C591        C  0.11373240  0.37798378  0.84778594     1.08300
C592        C  0.13540904  0.29227378  0.94344087     1.08200
O593        O  0.17260865  0.26226040  0.87769768    -0.81400
O594        O  0.11199015  0.32415370  0.80477706    -0.81500
O595        O  0.18583913  0.35208838  0.86580346    -0.81400
O596        O  0.10643007  0.25509995  0.85517904    -0.81400
O597        O  0.13430471  0.27812991  0.82810524    -0.81400
O598        O  0.19456430  0.30844373  0.86192617    -0.81400
O599        O  0.13810146  0.24717896  0.90168704    -0.81400
O600        O  0.15209172  0.33698754  0.82244616    -0.81400
Co601      Co  0.17424291  0.29814928  0.89532091     1.51500
Co602      Co  0.12044250  0.31442636  0.84108397     1.51700
Co603      Co  0.14448482  0.34538140  0.86456381     1.51600
Co604      Co  0.11037122  0.27707435  0.89204747     1.51500
O605        O  0.13754167  0.30630462  0.87760912    -1.43300
C606        C  0.16009289  0.24262087  0.88842564     1.08200
C607        C  0.13543611  0.33460394  0.80147970     1.08300
C608        C  0.20275312  0.33288858  0.86024617     1.08200
C609        C  0.12075892  0.25635870  0.83293472     1.08200
O610        O  0.19291405  0.12317362  0.68152679    -0.81400
O611        O  0.13557427  0.16815278  0.72858058    -0.81400
O612        O  0.13810272  0.17783731  0.65490571    -0.81400
O613        O  0.14250033  0.09703757  0.75642373    -0.81400
O614        O  0.11227595  0.19807742  0.68658103    -0.81500
O615        O  0.17494357  0.11671618  0.73273935    -0.81400
O616        O  0.10798719  0.14305234  0.75351132    -0.81400
O617        O  0.17135391  0.15610379  0.65958963    -0.81400
C618        C  0.19308152  0.14556566  0.66837079     1.08300
C619        C  0.12311953  0.16444841  0.75117436     1.08200
C620        C  0.12826598  0.19994950  0.66590566     1.08300
C621        C  0.16652375  0.10773865  0.75527189     1.08200
O622        O  0.15040898  0.06322219  0.71646789    -0.81400
O623        O  0.08729581  0.15586414  0.66146546    -0.81500
O624        O  0.15615690  0.10942302  0.63375600    -0.81400
O625        O  0.07341934  0.11333419  0.71332178    -0.81400
O626        O  0.07714342  0.15838686  0.71297009    -0.81400
O627        O  0.16007044  0.07586870  0.66374452    -0.81400
O628        O  0.10596285  0.06913446  0.71504527    -0.81400
O629        O  0.11022464  0.13678111  0.62890884    -0.81400
Co630      Co  0.16582250  0.09733900  0.69853502     1.51500
Co631      Co  0.11467060  0.15926541  0.69432795     1.51700
Co632      Co  0.13736408  0.13560466  0.65840618     1.51600
Co633      Co  0.10860866  0.10642713  0.73201585     1.51500
O634        O  0.12822651  0.11951731  0.69627506    -1.43300
C635        C  0.12645315  0.05326901  0.71303761     1.08200
C636        C  0.08974198  0.15066694  0.63584949     1.08300
C637        C  0.16191836  0.08466677  0.63934122     1.08200
C638        C  0.06211770  0.13673624  0.71206331     1.08200
O639        O  0.31754973  0.19456091  0.87734400    -0.81400
O640        O  0.27845212  0.09777516  0.83276958    -0.81400
O641        O  0.35102400  0.15081268  0.82831929    -0.81400
O642        O  0.24830900  0.14486101  0.91062120    -0.81400
O643        O  0.30866631  0.14308243  0.81870401    -0.81500
O644        O  0.26912168  0.18036431  0.89313487    -0.81400
O645        O  0.24905233  0.11941962  0.86014702    -0.81400
O646        O  0.35664190  0.17781989  0.86314202    -0.81400
C647        C  0.33976977  0.19787259  0.86500431     1.08300
C648        C  0.25443143  0.10753602  0.83749433     1.08200
C649        C  0.33142502  0.15330620  0.81134754     1.08300
C650        C  0.24742496  0.16868406  0.90059089     1.08200
O651        O  0.29206944  0.15081924  0.94016524    -0.81400
O652        O  0.33518284  0.09200835  0.81917614    -0.81500
O653        O  0.36975779  0.13530179  0.89719903    -0.81400
O654        O  0.28007014  0.07626592  0.88291453    -0.81400
O655        O  0.32290491  0.08193865  0.87273486    -0.81400
O656        O  0.34455923  0.16407788  0.92227433    -0.81400
O657        O  0.28803069  0.10653401  0.93126564    -0.81400
O658        O  0.36591502  0.10506649  0.84989808    -0.81400
Co659      Co  0.30590847  0.16949495  0.90605191     1.51500
Co660      Co  0.31481271  0.11321342  0.84690419     1.51700
Co661      Co  0.34469641  0.13805550  0.86658773     1.51600
Co662      Co  0.26968302  0.11342955  0.89496919     1.51500
O663        O  0.30325667  0.13578955  0.87939492    -1.43300
C664        C  0.29063152  0.12610509  0.94858365     1.08200
C665        C  0.35992607  0.09076625  0.82816868     1.08300
C666        C  0.36697897  0.15088830  0.91775560     1.08200
C667        C  0.30385473  0.06662757  0.88116641     1.08200
O668        O  0.56969282  0.83366645  0.63712481    -0.81400
O669        O  0.61923260  0.81573603  0.57054321    -0.81400
O670        O  0.63816887  0.85501879  0.60218197    -0.81400
O671        O  0.56677298  0.76727482  0.59335433    -0.81400
O672        O  0.67130532  0.83213722  0.58240801    -0.81500
O673        O  0.55206205  0.77979337  0.63439968    -0.81400
O674        O  0.61449366  0.77148118  0.56456470    -0.81400
O675        O  0.60750897  0.85605840  0.64926868    -0.81400
C676        C  0.58150174  0.85569910  0.64459845     1.08300
C677        C  0.61436097  0.79575794  0.55460931     1.08200
C678        C  0.66011418  0.85516885  0.58715614     1.08300
C679        C  0.54736787  0.77324486  0.60961307     1.08200
O680        O  0.59514215  0.76534266  0.67308942    -0.81400
O681        O  0.67672606  0.81181991  0.63294088    -0.81500
O682        O  0.64170756  0.80871148  0.67248239    -0.81400
O683        O  0.64399707  0.74695593  0.61191070    -0.81400
O684        O  0.66361616  0.77820159  0.58646813    -0.81400
O685        O  0.60126733  0.81990411  0.68474430    -0.81400
O686        O  0.59589747  0.73651851  0.63752749    -0.81400
O687        O  0.66541619  0.85273112  0.64877844    -0.81400
Co688      Co  0.58230882  0.79934703  0.65424051     1.51500
Co689      Co  0.64515846  0.81168854  0.60246394     1.51700
Co690      Co  0.63676716  0.82881802  0.63644257     1.51600
Co691      Co  0.60593931  0.75859728  0.60349349     1.51500
O692        O  0.61240998  0.79633960  0.62384380    -1.43300
C693        C  0.59785209  0.74119202  0.66336375     1.08200
C694        C  0.68375020  0.83425860  0.64630973     1.08300
C695        C  0.62582280  0.81566853  0.69151818     1.08200
C696        C  0.66459566  0.75532977  0.59879293     1.08200
O697        O  0.82744244  0.66351096  0.57475322    -0.81400
O698        O  0.80429457  0.57267182  0.62037286    -0.81400
O699        O  0.86348967  0.59867913  0.64773216    -0.81400
O700        O  0.75372139  0.61683062  0.57844826    -0.81400
O701        O  0.83354892  0.57206984  0.66948341    -0.81500
O702        O  0.79825003  0.61644004  0.57469262    -0.81400
O703        O  0.75910047  0.57419991  0.61686820    -0.81400
O704        O  0.85304487  0.63951213  0.60526569    -0.81400
C705        C  0.85090209  0.65556450  0.58385229     1.08300
C706        C  0.78156865  0.56083856  0.61459821     1.08200
C707        C  0.85875759  0.57763876  0.66338516     1.08300
C708        C  0.77473722  0.61380128  0.56358538     1.08200
O709        O  0.76962036  0.66894862  0.58889586    -0.81400
O710        O  0.80702595  0.61871138  0.68909612    -0.81500
O711        O  0.84011648  0.65962345  0.64941391    -0.81400
O712        O  0.74341766  0.61228763  0.65882937    -0.81400
O713        O  0.77286561  0.57918552  0.66986358    -0.81400
O714        O  0.80952439  0.68120747  0.62352281    -0.81400
O715        O  0.74040036  0.65404439  0.62075714    -0.81400
O716        O  0.83950091  0.64143847  0.67038548    -0.81400
Co717      Co  0.80375190  0.64796470  0.60090816     1.51500
Co718      Co  0.80602511  0.59767249  0.65327713     1.51700
Co719      Co  0.82989521  0.61969268  0.63561795     1.51600
Co720      Co  0.75134127  0.61497294  0.61954913     1.51500
O721        O  0.78883564  0.62925588  0.63187548    -1.43300
C722        C  0.74840400  0.67253107  0.60412613     1.08200
C723        C  0.82677901  0.63523326  0.69236850     1.08300
C724        C  0.82838713  0.68238092  0.64132363     1.08200
C725        C  0.74948269  0.59096617  0.67252979     1.08200
O726        O  0.67562762  0.58917913  0.84033700    -0.81400
O727        O  0.57824625  0.65115123  0.78917910    -0.81400
O728        O  0.62791534  0.65285373  0.87564104    -0.81400
O729        O  0.61418054  0.56655663  0.79794999    -0.81400
O730        O  0.59567731  0.65087554  0.84260944    -0.81500
O731        O  0.65936789  0.56402686  0.79233228    -0.81400
O732        O  0.57665258  0.60753628  0.79782338    -0.81400
O733        O  0.63495936  0.59985745  0.85774701    -0.81400
C734        C  0.65722792  0.58583978  0.85872933     1.08300
C735        C  0.56426164  0.62994779  0.79386772     1.08200
C736        C  0.60302932  0.65577929  0.86793510     1.08300
C737        C  0.63599598  0.55245398  0.79603749     1.08200
O738        O  0.67231302  0.61498821  0.76297694    -0.81400
O739        O  0.60442911  0.69327002  0.80828542    -0.81500
O740        O  0.67637166  0.64041315  0.85157460    -0.81400
O741        O  0.60417429  0.63244603  0.74877765    -0.81400
O742        O  0.63053670  0.66428444  0.76792020    -0.81400
O743        O  0.69119648  0.63911541  0.80962374    -0.81400
O744        O  0.63962645  0.58713719  0.74927182    -0.81400
O745        O  0.64280535  0.67945165  0.82909204    -0.81400
Co746      Co  0.67282071  0.60324904  0.80115576     1.51500
Co747      Co  0.61572190  0.65635824  0.80483829     1.51700
Co748      Co  0.63656119  0.63744876  0.84118612     1.51600
Co749      Co  0.60978221  0.59974468  0.77550498     1.51500
O750        O  0.63473323  0.61998997  0.80353471    -1.43300
C751        C  0.66341783  0.59737419  0.74610831     1.08200
C752        C  0.62672902  0.69920227  0.82029203     1.08300
C753        C  0.69476153  0.64648486  0.83442425     1.08200
C754        C  0.61648032  0.65587159  0.74733830     1.08200
O755        O  0.90816962  0.81916371  0.66905866    -0.81400
O756        O  0.84267733  0.91481843  0.71464182    -0.81400
O757        O  0.84447087  0.86425160  0.62953375    -0.81400
O758        O  0.92933996  0.87914284  0.70857225    -0.81400
O759        O  0.84233441  0.89507993  0.66359061    -0.81500
O760        O  0.93052189  0.83450394  0.71723736    -0.81400
O761        O  0.88655038  0.91622017  0.70602704    -0.81400
O762        O  0.89707512  0.85954681  0.65079165    -0.81400
C763        C  0.91205586  0.83792513  0.65105876     1.08300
C764        C  0.86400059  0.92883298  0.70910756     1.08200
C765        C  0.83990318  0.88886994  0.63771076     1.08300
C766        C  0.94288410  0.85691245  0.71140343     1.08200
O767        O  0.87943816  0.82187580  0.74524948    -0.81400
O768        O  0.79967486  0.88157389  0.69696489    -0.81500
O769        O  0.85918976  0.81458275  0.65440849    -0.81400
O770        O  0.86287182  0.89120772  0.75615028    -0.81400
O771        O  0.83199343  0.86199420  0.73948016    -0.81400
O772        O  0.85758627  0.80206905  0.69717438    -0.81400
O773        O  0.90680943  0.85585197  0.75792051    -0.81400
O774        O  0.81769819  0.84596868  0.67485803    -0.81400
Co775      Co  0.89232803  0.82106242  0.70733257     1.51500
Co776      Co  0.83802597  0.87533945  0.70165399     1.51700
Co777      Co  0.85911538  0.85523758  0.66479294     1.51600
Co778      Co  0.89525233  0.88458577  0.73002961     1.51500
O779        O  0.87517003  0.85852348  0.70314175    -1.43300
C780        C  0.89560151  0.83266622  0.76261144     1.08200
C781        C  0.79612337  0.85963307  0.68289225     1.08300
C782        C  0.85483001  0.79582502  0.67202327     1.08200
C783        C  0.84112793  0.87668213  0.75938328     1.08200
O784        O  0.85587173  0.64649419  0.91196358    -0.81400
O785        O  0.94091237  0.69989552  0.86583229    -0.81400
O786        O  0.87597711  0.63339321  0.84559805    -0.81400
O787        O  0.88102476  0.73215919  0.93376704    -0.81400
O788        O  0.91584897  0.64945702  0.85943721    -0.81500
O789        O  0.88071876  0.68849377  0.93395014    -0.81400
O790        O  0.92863408  0.71433411  0.90715909    -0.81400
O791        O  0.83142308  0.63759362  0.87599996    -0.81400
C792        C  0.83877424  0.63095136  0.89992720     1.08300
C793        C  0.94714979  0.70717715  0.89028088     1.08200
C794        C  0.90163073  0.62975798  0.84991741     1.08300
C795        C  0.88101180  0.71031137  0.94742095     1.08200
O796        O  0.83537502  0.72764766  0.91091422    -0.81400
O797        O  0.88695402  0.67099042  0.81045555    -0.81500
O798        O  0.82065232  0.68732558  0.84732523    -0.81400
O799        O  0.91325402  0.74787889  0.86263629    -0.81400
O800        O  0.89998403  0.72273104  0.82763346    -0.81400
O801        O  0.81090561  0.68332784  0.89024316    -0.81400
O802        O  0.86049906  0.75218832  0.88242839    -0.81400
O803        O  0.84350906  0.67282776  0.81970166    -0.81400
Co804      Co  0.84883428  0.68713204  0.90912912     1.51500
Co805      Co  0.90709744  0.68664381  0.84521392     1.51700
Co806      Co  0.85335882  0.66652317  0.85710891     1.51600
Co807      Co  0.89371544  0.73211217  0.89426518     1.51500
O808        O  0.87715760  0.69448947  0.87676869    -1.43300
C809        C  0.83862101  0.74918065  0.89594281     1.08200
C810        C  0.86182750  0.66889667  0.80265034     1.08300
C811        C  0.80274337  0.68651195  0.86544572     1.08200
C812        C  0.90812893  0.74539349  0.83744887     1.08200
O813        O  0.65689190  0.90804467  0.82502276    -0.81400
O814        O  0.70533561  0.83683064  0.92284313    -0.81400
O815        O  0.64346709  0.87588620  0.89615210    -0.81400
O816        O  0.70191213  0.92330437  0.88841333    -0.81400
O817        O  0.65363241  0.83181539  0.90027146    -0.81500
O818        O  0.70793073  0.92746538  0.84406357    -0.81400
O819        O  0.69968089  0.88119964  0.92468315    -0.81400
O820        O  0.61966102  0.89042685  0.84640554    -0.81400
C821        C  0.63025373  0.90823753  0.83019913     1.08300
C822        C  0.70234844  0.85859277  0.93725537     1.08200
C823        C  0.63789363  0.85234780  0.90586707     1.08300
C824        C  0.70305462  0.93840742  0.86737258     1.08200
O825        O  0.73493833  0.87594061  0.82626384    -0.81400
O826        O  0.67930071  0.81630622  0.84781120    -0.81500
O827        O  0.64994902  0.85971750  0.81640657    -0.81400
O828        O  0.74787819  0.85398622  0.89790756    -0.81400
O829        O  0.72954192  0.82331642  0.86987419    -0.81400
O830        O  0.69151998  0.85753360  0.80422932    -0.81400
O831        O  0.75126260  0.89782052  0.86218475    -0.81400
O832        O  0.63768307  0.83214392  0.85266589    -0.81400
Co833      Co  0.69750434  0.89001955  0.82831676     1.51500
Co834      Co  0.69220372  0.82938133  0.88341250     1.51700
Co835      Co  0.65226772  0.87210402  0.85687464     1.51600
Co836      Co  0.72238535  0.88787267  0.89134512     1.51500
O837        O  0.69302821  0.86793443  0.86557185    -1.43300
C838        C  0.75519885  0.88494982  0.83953398     1.08200
C839        C  0.65384015  0.81258656  0.84501005     1.08300
C840        C  0.66716980  0.85210442  0.79888684     1.08200
C841        C  0.74925787  0.83067576  0.88521001     1.08200
O842        O  0.32342633  0.83999968  0.56732312    -0.81400
O843        O  0.42017425  0.80180958  0.61299895    -0.81400
O844        O  0.36372648  0.86974837  0.65026824    -0.81400
O845        O  0.37182691  0.76761181  0.56509660    -0.81400
O846        O  0.40190470  0.84843079  0.63928869    -0.81500
O847        O  0.37220039  0.81263462  0.56691980    -0.81400
O848        O  0.41223509  0.75820325  0.60552643    -0.81400
O849        O  0.33776547  0.85902289  0.60681103    -0.81400
C850        C  0.32620091  0.86101850  0.58295481     1.08300
C851        C  0.42886824  0.77834518  0.60576020     1.08200
C852        C  0.38938411  0.87047822  0.64744316     1.08300
C853        C  0.37444734  0.79057302  0.55310280     1.08200
O854        O  0.31951084  0.78198735  0.57340037    -0.81400
O855        O  0.37841031  0.81271145  0.68418388    -0.81500
O856        O  0.32033861  0.83100422  0.65042131    -0.81400
O857        O  0.36806433  0.74370765  0.64155168    -0.81400
O858        O  0.40287806  0.76723989  0.65916556    -0.81400
O859        O  0.30440068  0.81439191  0.61194687    -0.81400
O860        O  0.33115325  0.75076331  0.60393453    -0.81400
O861        O  0.33888197  0.82777913  0.66874830    -0.81400
Co862      Co  0.34002005  0.81393364  0.59152939     1.51500
Co863      Co  0.39719055  0.80635772  0.64627751     1.51700
Co864      Co  0.35870771  0.83454794  0.63433911     1.51600
Co865      Co  0.37045689  0.75784298  0.60501449     1.51500
O866        O  0.36108025  0.79606382  0.62196971    -1.43300
C867        C  0.31376374  0.76061441  0.58742703     1.08200
C868        C  0.35408900  0.82153198  0.68918551     1.08300
C869        C  0.29974360  0.82334118  0.63576740     1.08200
C870        C  0.38586660  0.74742152  0.65986064     1.08200
O871        O  0.32287795  0.62896039  0.80065204    -0.81400
O872        O  0.37814192  0.67193775  0.76183651    -0.81400
O873        O  0.37953419  0.66786774  0.85510206    -0.81400
O874        O  0.35711960  0.60632553  0.74691861    -0.81400
O875        O  0.36902918  0.68508568  0.81484823    -0.81500
O876        O  0.33527052  0.58253394  0.77783697    -0.81400
O877        O  0.40123064  0.64046747  0.73932919    -0.81400
O878        O  0.33826902  0.64228285  0.83972044    -0.81400
C879        C  0.31875699  0.64170895  0.82245922     1.08300
C880        C  0.38789992  0.66287266  0.73962239     1.08200
C881        C  0.36986014  0.68747278  0.84076220     1.08300
C882        C  0.33571557  0.59292175  0.75407293     1.08200
O883        O  0.37600606  0.57353444  0.82002703    -0.81400
O884        O  0.42427534  0.66717571  0.82946564    -0.81500
O885        O  0.36899551  0.61428972  0.87567294    -0.81400
O886        O  0.43359908  0.60984736  0.77807477    -0.81400
O887        O  0.43441057  0.65550366  0.77603838    -0.81400
O888        O  0.34013440  0.59279548  0.84654109    -0.81400
O889        O  0.39345924  0.56974832  0.77890162    -0.81400
O890        O  0.41891939  0.62568925  0.84789175    -0.81400
Co891      Co  0.35318118  0.60410415  0.80760668     1.51500
Co892      Co  0.40010298  0.66812092  0.79547248     1.51700
Co893      Co  0.37858692  0.62893992  0.84039678     1.51600
Co894      Co  0.39562723  0.60804865  0.76398121     1.51500
O895        O  0.38395741  0.63031499  0.79932810    -1.43300
C896        C  0.38738344  0.55922677  0.80181563     1.08200
C897        C  0.43150651  0.64891061  0.84705595     1.08300
C898        C  0.34889143  0.59771663  0.87144845     1.08200
C899        C  0.44678677  0.63238552  0.77832646     1.08200
O900        O  0.16664638  0.68587167  0.60558799    -0.81400
O901        O  0.21668461  0.59656366  0.68212065    -0.81400
O902        O  0.16122070  0.67100621  0.67643894    -0.81400
O903        O  0.24390876  0.66222326  0.61975065    -0.81400
O904        O  0.18829868  0.64224787  0.69579635    -0.81500
O905        O  0.21510934  0.66872656  0.58413198    -0.81400
O906        O  0.24199206  0.62901470  0.66529451    -0.81400
O907        O  0.15818473  0.67984138  0.65082776    -0.81400
C908        C  0.16132242  0.69550619  0.62951713     1.08300
C909        C  0.23961778  0.60919342  0.68182366     1.08200
C910        C  0.17466117  0.66442775  0.69791840     1.08300
C911        C  0.23558692  0.67616131  0.59909226     1.08200
O912        O  0.19134635  0.61225573  0.57951076    -0.81400
O913        O  0.15677733  0.59518884  0.68951674    -0.81500
O914        O  0.12627768  0.65174835  0.62905747    -0.81400
O915        O  0.22464084  0.58263996  0.62954536    -0.81400
O916        O  0.17979073  0.58222112  0.63852554    -0.81400
O917        O  0.14338995  0.63061921  0.59477514    -0.81400
O918        O  0.23474344  0.61791007  0.58378815    -0.81400
O919        O  0.12793373  0.62836029  0.67636105    -0.81400
Co920      Co  0.17990656  0.64851047  0.59320049     1.51500
Co921      Co  0.18255974  0.61399652  0.66443322     1.51700
Co922      Co  0.15810516  0.63779910  0.65163847     1.51600
Co923      Co  0.23379772  0.62353890  0.62549726     1.51500
O924        O  0.19456609  0.63900082  0.63181445    -1.43300
C925        C  0.21442657  0.61189297  0.56851354     1.08200
C926        C  0.13259014  0.60608910  0.68966947     1.08300
C927        C  0.12392021  0.64460486  0.60433620     1.08200
C928        C  0.20194172  0.56945598  0.63229574     1.08200
O929        O  0.17617173  0.90625512  0.65324784    -0.81400
O930        O  0.07630204  0.83604098  0.72123134    -0.81400
O931        O  0.09311188  0.87025792  0.65130211    -0.81400
O932        O  0.11429562  0.92361580  0.71955065    -0.81400
O933        O  0.08947413  0.82811160  0.66811978    -0.81500
O934        O  0.12815194  0.91890432  0.67695958    -0.81400
O935        O  0.07489469  0.88159048  0.72014833    -0.81400
O936        O  0.14494371  0.88540034  0.62511198    -0.81400
C937        C  0.16586744  0.90164049  0.62866375     1.08300
C938        C  0.06264312  0.85847924  0.71944601     1.08200
C939        C  0.08122214  0.84670474  0.65137784     1.08300
C940        C  0.11956466  0.93416764  0.69642308     1.08200
O941        O  0.17146677  0.91257891  0.71710237    -0.81400
O942        O  0.14463688  0.81129501  0.68460070    -0.81500
O943        O  0.17309248  0.85428753  0.65733451    -0.81400
O944        O  0.10899764  0.85186404  0.75990265    -0.81400
O945        O  0.13197750  0.81994500  0.73744865    -0.81400
O946        O  0.18679083  0.86479144  0.69685256    -0.81400
O947        O  0.15062841  0.89005851  0.75085521    -0.81400
O948        O  0.13460043  0.82809466  0.64406051    -0.81400
Co949      Co  0.15602421  0.88974547  0.68574127     1.51500
Co950      Co  0.11201896  0.82585431  0.70284732     1.51700
Co951      Co  0.13345248  0.86749990  0.65930879     1.51600
Co952      Co  0.11290707  0.88550837  0.73499191     1.51500
O953        O  0.12792182  0.86406926  0.70156377    -1.43300
C954        C  0.17087943  0.90408682  0.74197128     1.08200
C955        C  0.14418070  0.80844100  0.65883373     1.08300
C956        C  0.19176620  0.85255942  0.67505675     1.08200
C957        C  0.12162811  0.82869691  0.75951006     1.08200
O958        O  0.20013567  0.66617659  0.87777224    -0.81400
O959        O  0.09520629  0.72648343  0.84402022    -0.81400
O960        O  0.16295274  0.69453135  0.82962655    -0.81400
O961        O  0.16072107  0.74598044  0.90967506    -0.81400
O962        O  0.12095346  0.68592823  0.81654138    -0.81500
O963        O  0.18868620  0.71838927  0.88902309    -0.81400
O964        O  0.13096404  0.74656098  0.86287333    -0.81400
O965        O  0.18677893  0.64610454  0.83926482    -0.81400
C966        C  0.20592445  0.65314075  0.85522415     1.08300
C967        C  0.11341167  0.74532462  0.84388399     1.08200
C968        C  0.14552857  0.69266334  0.81026023     1.08300
C969        C  0.18331385  0.74229059  0.89732977     1.08200
O970        O  0.15948798  0.70162885  0.94153375    -0.81400
O971        O  0.10059020  0.64574339  0.85903572    -0.81500
O972        O  0.15544901  0.63126127  0.88139444    -0.81400
O973        O  0.08168092  0.72854612  0.89361371    -0.81400
O974        O  0.07700337  0.68502756  0.88604744    -0.81400
O975        O  0.16214624  0.64901064  0.92194521    -0.81400
O976        O  0.11639246  0.71371703  0.93505078    -0.81400
O977        O  0.13504972  0.64065316  0.83235666    -0.81400
Co978      Co  0.17268892  0.68451002  0.90513785     1.51500
Co979      Co  0.10111094  0.68595087  0.85390932     1.51700
Co980      Co  0.15855164  0.66502455  0.85727120     1.51600
Co981      Co  0.12386111  0.72939337  0.89831663     1.51500
O982        O  0.13486964  0.68983662  0.88136356    -1.43300
C983        C  0.13554569  0.70652982  0.95111914     1.08200
C984        C  0.11213028  0.63194779  0.84060201     1.08300
C985        C  0.15923383  0.62792950  0.90695389     1.08200
C986        C  0.06649870  0.70720674  0.89389185     1.08200
O987        O  0.32000464  0.88295544  0.79972958    -0.81400
O988        O  0.28245379  0.83007374  0.86309505    -0.81400
O989        O  0.34398761  0.80977249  0.84668990    -0.81400
O990        O  0.25593599  0.89314280  0.84246976    -0.81400
O991        O  0.32557923  0.80682614  0.88910422    -0.81500
O992        O  0.28317586  0.92123655  0.82023211    -0.81400
O993        O  0.25493032  0.85769663  0.88515079    -0.81400
O994        O  0.30805771  0.84305221  0.81700854    -0.81400
C995        C  0.31334926  0.85778212  0.79618857     1.08300
C996        C  0.25928461  0.83426128  0.87415711     1.08200
C997        C  0.33700694  0.79550870  0.86786634     1.08300
C998        C  0.26098066  0.90746603  0.82158840     1.08200
O999        O  0.32501912  0.93691601  0.86076679    -0.81400
O1000       O  0.34483717  0.85779717  0.90850017    -0.81500
O1001       O  0.36380333  0.86217002  0.82089152    -0.81400
O1002       O  0.28825301  0.89566531  0.91725343    -0.81400
O1003       O  0.29426047  0.85062715  0.91919574    -0.81400
O1004       O  0.36065445  0.90225742  0.84027695    -0.81400
O1005       O  0.28272437  0.93572272  0.87637219    -0.81400
O1006       O  0.36787751  0.85229182  0.87259818    -0.81400
Co1007     Co  0.32150134  0.90909307  0.83242117     1.51500
Co1008     Co  0.31494041  0.84569916  0.88316698     1.51700
Co1009     Co  0.33428924  0.84887769  0.84797668     1.51600
Co1010     Co  0.27345484  0.89473221  0.87894880     1.51500
O1011       O  0.31150535  0.88231669  0.86343323    -1.43300
C1012       C  0.30519791  0.94869683  0.87212113     1.08200
C1013       C  0.36779731  0.85341959  0.89832907     1.08300
C1014       C  0.37298470  0.88666565  0.82372581     1.08200
C1015       C  0.29040371  0.87386256  0.93148707     1.08200
O1016       O  0.19429201  0.63980109  0.32364739    -0.81400
O1017       O  0.23996380  0.68058258  0.39605218    -0.81400
O1018       O  0.15118876  0.67615220  0.36626088    -0.81400
O1019       O  0.25806772  0.62016220  0.36034376    -0.81400
O1020       O  0.19237219  0.69325804  0.37390858    -0.81500
O1021       O  0.22760940  0.59640309  0.33618649    -0.81400
O1022       O  0.26180120  0.64486956  0.41231268    -0.81400
O1023       O  0.15197236  0.64538404  0.33467028    -0.81400
C1024       C  0.17046858  0.64811911  0.31685186     1.08300
C1025       C  0.26166966  0.66946344  0.40462946     1.08200
C1026       C  0.16806762  0.69623226  0.36504766     1.08300
C1027       C  0.25118919  0.60762453  0.33819643     1.08200
O1028       O  0.18863519  0.57779909  0.37845126    -0.81400
O1029       O  0.16255079  0.67020074  0.41996937    -0.81500
O1030       O  0.14347516  0.60072077  0.35957917    -0.81400
O1031       O  0.22404473  0.60739405  0.43308369    -0.81400
O1032       O  0.21243142  0.65129855  0.44206057    -0.81400
O1033       O  0.17158089  0.58765744  0.32649737    -0.81400
O1034       O  0.23235319  0.57561624  0.38610573    -0.81400
O1035       O  0.13698424  0.63635363  0.40415473    -0.81400
Co1036     Co  0.19212526  0.61015226  0.35234998     1.51500
Co1037     Co  0.20218325  0.67062577  0.40618821     1.51700
Co1038     Co  0.16220270  0.63605415  0.37311309     1.51600
Co1039     Co  0.24012305  0.61397072  0.39659472     1.51500
O1040       O  0.20443808  0.63469787  0.38286760    -1.43300
C1041       C  0.20975467  0.56358213  0.38404371     1.08200
C1042       C  0.13959466  0.65726129  0.41936935     1.08300
C1043       C  0.14820657  0.58584262  0.33796880     1.08200
C1044       C  0.21734877  0.62645865  0.44985739     1.08200
O1045       O  0.35586786  0.57915371  0.15791927    -0.81400
O1046       O  0.42449673  0.63197460  0.17694355    -0.81400
O1047       O  0.40308136  0.65173554  0.13174894    -0.81400
O1048       O  0.39777915  0.57632579  0.21939149    -0.81400
O1049       O  0.41489787  0.68533195  0.15976549    -0.81500
O1050       O  0.35455555  0.56602199  0.21292529    -0.81400
O1051       O  0.42876034  0.62255352  0.22080017    -0.81400
O1052       O  0.36252736  0.61099247  0.12694240    -0.81400
C1053       C  0.35541424  0.58683065  0.13298692     1.08300
C1054       C  0.43874438  0.62337706  0.19692135     1.08200
C1055       C  0.41515269  0.67491710  0.13526878     1.08300
C1056       C  0.37874934  0.55876634  0.21926130     1.08200
O1057       O  0.32070466  0.61246254  0.22372829    -0.81400
O1058       O  0.36620448  0.68728533  0.19232053    -0.81500
O1059       O  0.33380388  0.64970151  0.14153536    -0.81400
O1060       O  0.38486536  0.65160855  0.24818990    -0.81400
O1061       O  0.41135240  0.67420337  0.21951679    -0.81400
O1062       O  0.31401669  0.62155169  0.17053554    -0.81400
O1063       O  0.35556681  0.60451050  0.25203075    -0.81400
O1064       O  0.35859601  0.67995718  0.14971486    -0.81400
Co1065     Co  0.33941050  0.59765616  0.19109969     1.51500
Co1066     Co  0.39453722  0.65875376  0.18398238     1.51700
Co1067     Co  0.37036069  0.64011450  0.15401916     1.51600
Co1068     Co  0.39046262  0.61469542  0.23208584     1.51500
O1069       O  0.37085659  0.62700097  0.19594454    -1.43300
C1070       C  0.32997587  0.60879842  0.24781222     1.08200
C1071       C  0.35650616  0.69610525  0.17012825     1.08300
C1072       C  0.31287108  0.64004744  0.15253695     1.08200
C1073       C  0.39890572  0.67265896  0.24260570     1.08200
O1074       O  0.40087311  0.85242845  0.33945810    -0.81400
O1075       O  0.34594914  0.79281619  0.42297692    -0.81400
O1076       O  0.36245906  0.86248326  0.39051783    -0.81400
O1077       O  0.42501515  0.80815190  0.37719348    -0.81400
O1078       O  0.32469647  0.83996812  0.40205800    -0.81500
O1079       O  0.42291751  0.80083257  0.33357966    -0.81400
O1080       O  0.39041583  0.80269628  0.42009368    -0.81400
O1081       O  0.36657473  0.88300879  0.33775726    -0.81400
C1082       C  0.39198110  0.87709981  0.33446883     1.08300
C1083       C  0.36900846  0.79905145  0.43429169     1.08200
C1084       C  0.34104099  0.86045153  0.40536223     1.08300
C1085       C  0.43751431  0.80425666  0.35497939     1.08200
O1086       O  0.37015357  0.77732591  0.32137125    -0.81400
O1087       O  0.30915805  0.81007810  0.35131664    -0.81500
O1088       O  0.35114936  0.83542345  0.31164367    -0.81400
O1089       O  0.36842954  0.75280467  0.39697617    -0.81400
O1090       O  0.33236888  0.76367528  0.37175219    -0.81400
O1091       O  0.39071556  0.82102873  0.29432419    -0.81400
O1092       O  0.39978663  0.75809864  0.35011666    -0.81400
O1093       O  0.31811942  0.85392727  0.35241907    -0.81400
Co1094     Co  0.38344569  0.81415007  0.33147177     1.51500
Co1095     Co  0.32978566  0.80168478  0.38554034     1.51700
Co1096     Co  0.35958776  0.84723596  0.35258053     1.51600
Co1097     Co  0.39465166  0.78249092  0.38505202     1.51500
O1098       O  0.36636334  0.80909894  0.36806614    -1.43300
C1099       C  0.38531627  0.75705282  0.32775968     1.08200
C1100       C  0.30072351  0.83457403  0.34883784     1.08300
C1101       C  0.36634432  0.82960281  0.29060051     1.08200
C1102       C  0.34524395  0.74663316  0.38649073     1.08200
O1103       O  0.11205472  0.66675089  0.19544760    -0.81400
O1104       O  0.17099427  0.71235258  0.09640841    -0.81400
O1105       O  0.18597839  0.63823270  0.15782211    -0.81400
O1106       O  0.11865722  0.73664437  0.16941437    -0.81400
O1107       O  0.18753463  0.67804018  0.13550448    -0.81500
O1108       O  0.08212477  0.71133820  0.17782886    -0.81400
O1109       O  0.16038037  0.73638207  0.13260497    -0.81400
O1110       O  0.15541212  0.67655389  0.18633286    -0.81400
C1111       C  0.13662640  0.67174727  0.20379151     1.08300
C1112       C  0.17657254  0.73185019  0.11286802     1.08200
C1113       C  0.19973482  0.65780567  0.14758758     1.08300
C1114       C  0.09674802  0.73267024  0.18269709     1.08200
O1115       O  0.07047175  0.68244249  0.12623923    -0.81400
O1116       O  0.17608236  0.65931180  0.08465911    -0.81500
O1117       O  0.13250094  0.62664575  0.16750134    -0.81400
O1118       O  0.12091760  0.72481016  0.08734973    -0.81400
O1119       O  0.12393262  0.67987940  0.08120004    -0.81400
O1120       O  0.09556896  0.63633399  0.14494765    -0.81400
O1121       O  0.07839557  0.72716396  0.12671289    -0.81400
O1122       O  0.15232014  0.63354651  0.11313155    -0.81400
Co1123     Co  0.09191386  0.67456973  0.15945778     1.51500
Co1124     Co  0.15321153  0.67762948  0.10982082     1.51700
Co1125     Co  0.15309855  0.65789643  0.14979529     1.51600
Co1126     Co  0.12022536  0.72869234  0.12960446     1.51500
O1127       O  0.12567900  0.68768141  0.13863161    -1.43300
C1128       C  0.06194620  0.70684167  0.12368240     1.08200
C1129       C  0.16703322  0.63581148  0.09088494     1.08300
C1130       C  0.10845241  0.61975452  0.16026741     1.08200
C1131       C  0.12049470  0.70378405  0.07112694     1.08200
O1132       O  0.18221619  0.87181995  0.30752824    -0.81400
O1133       O  0.07740318  0.82857980  0.27813199    -0.81400
O1134       O  0.14364388  0.82714058  0.34033393    -0.81400
O1135       O  0.14636565  0.88272624  0.24166849    -0.81400
O1136       O  0.11907490  0.80942506  0.30788659    -0.81500
O1137       O  0.16618827  0.91081858  0.27246628    -0.81400
O1138       O  0.10440036  0.84434675  0.24506848    -0.81400
O1139       O  0.16271626  0.84858376  0.34103021    -0.81400
C1140       C  0.18459535  0.85548780  0.32738606     1.08300
C1141       C  0.08726419  0.82672260  0.25375827     1.08200
C1142       C  0.13665751  0.80560599  0.32656033     1.08300
C1143       C  0.16632117  0.89816813  0.24916934     1.08200
O1144       O  0.11808725  0.92093865  0.30951294    -0.81400
O1145       O  0.07563680  0.82829167  0.33982306    -0.81500
O1146       O  0.14251174  0.89313500  0.35725757    -0.81400
O1147       O  0.06905421  0.88446004  0.26981651    -0.81400
O1148       O  0.07344664  0.87770111  0.31400765    -0.81400
O1149       O  0.16876121  0.92019168  0.33120631    -0.81400
O1150       O  0.11238589  0.92362972  0.26523590    -0.81400
O1151       O  0.10418405  0.85101798  0.36794364    -0.81400
Co1152     Co  0.14975432  0.89536747  0.30753527     1.51500
Co1153     Co  0.09831200  0.84491941  0.31070840     1.51700
Co1154     Co  0.12232779  0.86284861  0.33346775     1.51600
Co1155     Co  0.10889910  0.88286009  0.25758727     1.51500
O1156       O  0.12793045  0.86662732  0.29175002    -1.43300
C1157       C  0.11344209  0.93528130  0.28858400     1.08200
C1158       C  0.08292615  0.83541540  0.36457532     1.08300
C1159       C  0.15976772  0.91349590  0.35484158     1.08200
C1160       C  0.05843247  0.88459872  0.29372183     1.08200
O1161       O  0.32862125  0.92259300  0.16444528    -0.81400
O1162       O  0.30913445  0.86950007  0.06567191    -0.81400
O1163       O  0.35975469  0.85794206  0.09185195    -0.81400
O1164       O  0.25972551  0.91830394  0.10399392    -0.81400
O1165       O  0.33769700  0.82173757  0.07511038    -0.81500
O1166       O  0.30374613  0.92312990  0.11404292    -0.81400
O1167       O  0.26408730  0.87522133  0.06478565    -0.81400
O1168       O  0.35663799  0.90066775  0.13553175    -0.81400
C1169       C  0.35260665  0.91953337  0.15421480     1.08300
C1170       C  0.28711875  0.87405772  0.05231392     1.08200
C1171       C  0.35995467  0.83594408  0.07705766     1.08300
C1172       C  0.28121247  0.93299131  0.10508580     1.08200
O1173       O  0.27074361  0.91026526  0.16216025    -0.81400
O1174       O  0.30670150  0.81189128  0.12243762    -0.81500
O1175       O  0.34763013  0.85766318  0.16224845    -0.81400
O1176       O  0.24467069  0.83862613  0.10688352    -0.81400
O1177       O  0.27645750  0.82071085  0.07964866    -0.81400
O1178       O  0.30835351  0.87149144  0.17759016    -0.81400
O1179       O  0.24101020  0.88028271  0.14406647    -0.81400
O1180       O  0.34652058  0.82536202  0.13565222    -0.81400
Co1181     Co  0.30582087  0.89637789  0.14484435     1.51500
Co1182     Co  0.30901375  0.84167300  0.09535874     1.51700
Co1183     Co  0.33572265  0.86478715  0.12499247     1.51600
Co1184     Co  0.25467216  0.87767692  0.10555451     1.51500
O1185       O  0.29210599  0.86672731  0.12147143    -1.43300
C1186       C  0.24853921  0.89632007  0.16357177     1.08200
C1187       C  0.32861784  0.80633243  0.13472644     1.08300
C1188       C  0.33130826  0.85975618  0.18190680     1.08200
C1189       C  0.25423688  0.81841176  0.09336339     1.08200
O1190       O  0.83336111  0.57678524  0.33227625    -0.81400
O1191       O  0.79976174  0.62568599  0.44012448    -0.81400
O1192       O  0.86169607  0.65825689  0.38003178    -0.81400
O1193       O  0.76353141  0.57688833  0.38217851    -0.81400
O1194       O  0.84605071  0.63923260  0.41650385    -0.81500
O1195       O  0.80838473  0.57405640  0.38170453    -0.81400
O1196       O  0.75745790  0.61507064  0.42670337    -0.81400
O1197       O  0.85447409  0.60313239  0.36287014    -0.81400
C1198       C  0.85516107  0.58243047  0.34585931     1.08300
C1199       C  0.77642175  0.61577273  0.44509653     1.08200
C1200       C  0.86476568  0.65272008  0.40528848     1.08300
C1201       C  0.78541870  0.56213281  0.38309865     1.08200
O1202       O  0.77655525  0.58909610  0.33147370    -0.81400
O1203       O  0.81968100  0.68948847  0.39227289    -0.81500
O1204       O  0.85587861  0.64431203  0.32542893    -0.81400
O1205       O  0.74584566  0.65759619  0.38611278    -0.81400
O1206       O  0.77190274  0.67527222  0.41909583    -0.81400
O1207       O  0.81423285  0.62772640  0.31837540    -0.81400
O1208       O  0.75189588  0.62387251  0.34514386    -0.81400
O1209       O  0.81553976  0.67605553  0.34885714    -0.81400
Co1210     Co  0.81119827  0.60231461  0.35260684     1.51500
Co1211     Co  0.80876487  0.65548067  0.41468285     1.51700
Co1212     Co  0.83224972  0.63946459  0.35651726     1.51600
Co1213     Co  0.75783002  0.61907896  0.38483879     1.51500
O1214       O  0.79868391  0.63114463  0.38092197    -1.43300
C1215       C  0.75532415  0.60445435  0.32839366     1.08200
C1216       C  0.81862206  0.69520148  0.36651475     1.08300
C1217       C  0.83681223  0.63762228  0.30871388     1.08200
C1218       C  0.75138284  0.67689971  0.40263904     1.08200
O1219       O  0.64231080  0.82405718  0.31208483    -0.81400
O1220       O  0.66722427  0.78501714  0.40835697    -0.81400
O1221       O  0.67232934  0.86034149  0.36042772    -0.81400
O1222       O  0.59826225  0.75124367  0.34801914    -0.81400
O1223       O  0.68327287  0.81794736  0.36576196    -0.81500
O1224       O  0.62237882  0.77285503  0.31735942    -0.81400
O1225       O  0.64510777  0.75433584  0.38223460    -0.81400
O1226       O  0.64015131  0.86534889  0.33028941    -0.81400
C1227       C  0.64769891  0.84949221  0.31091210     1.08300
C1228       C  0.66585138  0.76124629  0.39700235     1.08200
C1229       C  0.69027845  0.84148865  0.35723940     1.08300
C1230       C  0.60940830  0.75173778  0.32472337     1.08200
O1231       O  0.56994453  0.79597221  0.33682028    -0.81400
O1232       O  0.67500178  0.84283850  0.41779299    -0.81500
O1233       O  0.59818572  0.87219153  0.36442204    -0.81400
O1234       O  0.61222586  0.78074478  0.42187784    -0.81400
O1235       O  0.62303337  0.82404361  0.42226185    -0.81400
O1236       O  0.58876278  0.84823965  0.32675532    -0.81400
O1237       O  0.57054052  0.78899639  0.38213065    -0.81400
O1238       O  0.64171435  0.87064033  0.40358443    -0.81400
Co1239     Co  0.60748546  0.81006101  0.32627682     1.51500
Co1240     Co  0.65215953  0.82057415  0.39286201     1.51700
Co1241     Co  0.63224564  0.85067662  0.36773517     1.51600
Co1242     Co  0.60790889  0.77228053  0.38238157     1.51500
O1243       O  0.62410015  0.80813787  0.36555389    -1.43300
C1244       C  0.55743962  0.79393280  0.35980871     1.08200
C1245       C  0.66253501  0.86611013  0.41952795     1.08300
C1246       C  0.58494670  0.86959025  0.34202877     1.08200
C1247       C  0.61400028  0.80314201  0.43471780     1.08200
O1248       O  0.69530858  0.60295004  0.17198896    -0.81400
O1249       O  0.58271321  0.66587880  0.22363164    -0.81400
O1250       O  0.65467147  0.68514670  0.17603692    -0.81400
O1251       O  0.64803916  0.59913178  0.24351671    -0.81400
O1252       O  0.61145774  0.69557784  0.18490897    -0.81500
O1253       O  0.67498738  0.62469924  0.21891727    -0.81400
O1254       O  0.61245819  0.64194003  0.24842270    -0.81400
O1255       O  0.68683965  0.64732623  0.16918976    -0.81400
C1256       C  0.70394993  0.62760904  0.16922822     1.08300
C1257       C  0.59723257  0.66282087  0.24537455     1.08200
C1258       C  0.63634627  0.70270495  0.18080297     1.08300
C1259       C  0.67117564  0.61084725  0.24064268     1.08200
O1260       O  0.65384341  0.57252998  0.19831086    -0.81400
O1261       O  0.58981681  0.65759323  0.14209883    -0.81500
O1262       O  0.65545898  0.62928262  0.12831154    -0.81400
O1263       O  0.56924006  0.61217458  0.22076262    -0.81400
O1264       O  0.56903245  0.62615684  0.17853138    -0.81400
O1265       O  0.64335544  0.59261597  0.14900325    -0.81400
O1266       O  0.60926454  0.57296640  0.20599153    -0.81400
O1267       O  0.63151114  0.66795208  0.13072773    -0.81400
Co1268     Co  0.65776440  0.61068222  0.18336345     1.51500
Co1269     Co  0.59106727  0.65887033  0.18321076     1.51700
Co1270     Co  0.64693337  0.64887169  0.16315570     1.51600
Co1271     Co  0.61059501  0.60816460  0.22662176     1.51500
O1272       O  0.62179880  0.62931302  0.19082372    -1.43300
C1273       C  0.63127098  0.55970615  0.20109362     1.08200
C1274       C  0.60659612  0.66541920  0.12413634     1.08300
C1275       C  0.65067250  0.60399342  0.12704632     1.08200
C1276       C  0.55619045  0.61802987  0.19882275     1.08200
O1277       O  0.69193250  0.90565508  0.19855407    -0.81400
O1278       O  0.74038337  0.82792779  0.12627759    -0.81400
O1279       O  0.65011240  0.83234829  0.14894392    -0.81400
O1280       O  0.75468399  0.90028293  0.14243677    -0.81400
O1281       O  0.69247708  0.81865980  0.14986281    -0.81500
O1282       O  0.73163616  0.87601665  0.17208504    -0.81400
O1283       O  0.75839467  0.86035647  0.10086233    -0.81400
O1284       O  0.67583884  0.86514587  0.18536297    -0.81400
C1285       C  0.68263804  0.88213393  0.20477148     1.08300
C1286       C  0.76101529  0.83841527  0.11490552     1.08200
C1287       C  0.66750490  0.81364662  0.15392915     1.08300
C1288       C  0.75286772  0.88956084  0.16654195     1.08200
O1289       O  0.71390612  0.93018751  0.15371457    -0.81400
O1290       O  0.66315515  0.83169731  0.09812179    -0.81500
O1291       O  0.62851698  0.88296944  0.16099591    -0.81400
O1292       O  0.71284340  0.88545890  0.07103679    -0.81400
O1293       O  0.71284757  0.83996125  0.07316237    -0.81400
O1294       O  0.65995875  0.91480938  0.15368631    -0.81400
O1295       O  0.70924949  0.92608786  0.10932674    -0.81400
O1296       O  0.64538076  0.87296528  0.10823022    -0.81400
Co1297     Co  0.69670694  0.89330621  0.16151751     1.51500
Co1298     Co  0.70228505  0.83170772  0.11296197     1.51700
Co1299     Co  0.66253301  0.87160939  0.14494815     1.51600
Co1300     Co  0.73151456  0.89205087  0.10707121     1.51500
O1301       O  0.70014553  0.87121703  0.12633960    -1.43300
C1302       C  0.71166921  0.94128478  0.13026602     1.08200
C1303       C  0.64420374  0.85001285  0.09549495     1.08300
C1304       C  0.63512753  0.90824501  0.16064045     1.08200
C1305       C  0.71054413  0.86217632  0.05912853     1.08200
O1306       O  0.91469936  0.66594771  0.17882434    -0.81400
O1307       O  0.84748634  0.71241238  0.07800791    -0.81400
O1308       O  0.87239211  0.64477987  0.09671337    -0.81400
O1309       O  0.92985083  0.70097064  0.11780318    -0.81400
O1310       O  0.83110394  0.66306790  0.09502564    -0.81500
O1311       O  0.93195985  0.71337341  0.16081823    -0.81400
O1312       O  0.89091494  0.70089682  0.07909251    -0.81400
O1313       O  0.91424002  0.64792168  0.13736117    -0.81400
C1314       C  0.92452354  0.64903175  0.16135580     1.08300
C1315       C  0.86920061  0.70499508  0.06547116     1.08200
C1316       C  0.84790021  0.64422421  0.08733185     1.08300
C1317       C  0.94419947  0.70702912  0.13850160     1.08200
O1318       O  0.87602276  0.73728142  0.17246760    -0.81400
O1319       O  0.82003959  0.68561650  0.14978779    -0.81500
O1320       O  0.87015340  0.64564371  0.17903349    -0.81400
O1321       O  0.86666383  0.75134787  0.10366773    -0.81400
O1322       O  0.83600307  0.73657308  0.13253984    -0.81400
O1323       O  0.85948383  0.68810384  0.18998740    -0.81400
O1324       O  0.90612523  0.75199394  0.14353007    -0.81400
O1325       O  0.83306142  0.64355159  0.14038157    -0.81400
Co1326     Co  0.89328339  0.70107808  0.17280515     1.51500
Co1327     Co  0.83637825  0.69947260  0.11598742     1.51700
Co1328     Co  0.87370596  0.64914067  0.13727814     1.51600
Co1329     Co  0.89710677  0.72342522  0.11222665     1.51500
O1330       O  0.87528737  0.69293381  0.13407936    -1.43300
C1331       C  0.89284414  0.75549789  0.16598148     1.08200
C1332       C  0.81530256  0.66000832  0.14992256     1.08300
C1333       C  0.85900113  0.66283269  0.19560196     1.08200
C1334       C  0.84550886  0.75596157  0.11827461     1.08200
O1335       O  0.86414389  0.81681969  0.31510463    -0.81400
O1336       O  0.82884714  0.92688161  0.27818391    -0.81400
O1337       O  0.81872390  0.85438089  0.31337557    -0.81400
O1338       O  0.87669603  0.85229172  0.25424827    -0.81400
O1339       O  0.80879801  0.89770775  0.32263424    -0.81500
O1340       O  0.90817179  0.83329493  0.27941927    -0.81400
O1341       O  0.84577747  0.89482119  0.25058010    -0.81400
O1342       O  0.84369421  0.82524488  0.35436163    -0.81400
C1343       C  0.85010456  0.80778907  0.33614137     1.08300
C1344       C  0.82826538  0.91301624  0.25576242     1.08200
C1345       C  0.80079874  0.87286563  0.31844239     1.08300
C1346       C  0.89541468  0.83469853  0.25642180     1.08200
O1347       O  0.92469604  0.87705183  0.31748003    -0.81400
O1348       O  0.85845418  0.91508693  0.35438840    -0.81500
O1349       O  0.88995935  0.85477959  0.35946206    -0.81400
O1350       O  0.88795568  0.93272882  0.26868468    -0.81400
O1351       O  0.87751936  0.94140826  0.31178522    -0.81400
O1352       O  0.91511850  0.82515379  0.33564779    -0.81400
O1353       O  0.92333409  0.88688745  0.27351416    -0.81400
O1354       O  0.83599155  0.87831551  0.36375214    -0.81400
Co1355     Co  0.89314919  0.85027727  0.31533679     1.51500
Co1356     Co  0.84529641  0.91774144  0.31595387     1.51700
Co1357     Co  0.85462046  0.85610884  0.33372734     1.51600
Co1358     Co  0.88256519  0.89092977  0.26492973     1.51500
O1359       O  0.86797667  0.88307605  0.30433414    -1.43300
C1360       C  0.93698305  0.88498634  0.29592750     1.08200
C1361       C  0.84272068  0.90262729  0.37031969     1.08300
C1362       C  0.90871723  0.83547988  0.35884791     1.08200
C1363       C  0.88753485  0.94914038  0.28938421     1.08200
O1364       O  0.14334015  0.40465738  0.35935621    -0.81400
O1365       O  0.18273712  0.37571514  0.42452887    -0.81400
O1366       O  0.14338773  0.34999861  0.38982078    -0.81400
O1367       O  0.22836123  0.42934566  0.38894067    -0.81400
O1368       O  0.16675509  0.32264759  0.41794801    -0.81500
O1369       O  0.18396593  0.43394518  0.38133236    -0.81400
O1370       O  0.22706186  0.38408214  0.42542642    -0.81400
O1371       O  0.13795401  0.36799483  0.33525126    -0.81400
C1372       C  0.12827644  0.39073539  0.34346970     1.08300
C1373       C  0.20427692  0.38166968  0.43801123     1.08200
C1374       C  0.14429357  0.33450274  0.41153327     1.08300
C1375       C  0.20651934  0.44408188  0.38909806     1.08200
O1376       O  0.21863761  0.42393999  0.33292134    -0.81400
O1377       O  0.19005920  0.31282791  0.36850415    -0.81500
O1378       O  0.19029392  0.34793982  0.32053491    -0.81400
O1379       O  0.24784567  0.35023938  0.38006077    -0.81400
O1380       O  0.22197202  0.33192085  0.41139461    -0.81400
O1381       O  0.17853005  0.39089482  0.31085821    -0.81400
O1382       O  0.24796321  0.39209331  0.34736720    -0.81400
O1383       O  0.15114079  0.31637619  0.34533129    -0.81400
Co1384     Co  0.18178329  0.41128235  0.34780480     1.51500
Co1385     Co  0.18630875  0.34709233  0.39521469     1.51700
Co1386     Co  0.16933948  0.34939906  0.35545211     1.51600
Co1387     Co  0.23509283  0.38816377  0.38459257     1.51500
O1388       O  0.19659512  0.37801249  0.36918689    -1.43300
C1389       C  0.24117433  0.41058440  0.33071091     1.08200
C1390       C  0.17071193  0.30141208  0.35385403     1.08300
C1391       C  0.18567868  0.36660791  0.30279490     1.08200
C1392       C  0.24394049  0.33175269  0.39744610     1.08200
O1393       O  0.40070164  0.32441131  0.17004538    -0.81400
O1394       O  0.36558728  0.43412773  0.21440310    -0.81400
O1395       O  0.35148550  0.38207571  0.13576504    -0.81400
O1396       O  0.41678778  0.38947913  0.20606900    -0.81400
O1397       O  0.36404838  0.41573144  0.16134210    -0.81500
O1398       O  0.42034785  0.34683933  0.21909130    -0.81400
O1399       O  0.39758691  0.42424112  0.24600490    -0.81400
O1400       O  0.38002958  0.34055739  0.13211094    -0.81400
C1401       C  0.39911796  0.32694535  0.14343979     1.08300
C1402       C  0.38435250  0.44192337  0.23181336     1.08200
C1403       C  0.35556754  0.40742824  0.13838473     1.08300
C1404       C  0.43191166  0.36867166  0.21110928     1.08200
O1405       O  0.36929941  0.33277813  0.24659345    -0.81400
O1406       O  0.30971505  0.38810432  0.17204692    -0.81500
O1407       O  0.34034683  0.32349968  0.16200539    -0.81400
O1408       O  0.34883940  0.39697999  0.25364809    -0.81400
O1409       O  0.31574892  0.40261541  0.22343265    -0.81400
O1410       O  0.35277908  0.30624350  0.20167528    -0.81400
O1411       O  0.39508216  0.36760534  0.25923708    -0.81400
O1412       O  0.32602310  0.34761771  0.15815745    -0.81400
Co1413     Co  0.38333719  0.33137905  0.20887481     1.51500
Co1414     Co  0.34060167  0.40658565  0.19310955     1.51700
Co1415     Co  0.36673343  0.35670735  0.16409349     1.51600
Co1416     Co  0.38175715  0.39280772  0.22806238     1.51500
O1417       O  0.36039918  0.36839624  0.20230805    -1.43300
C1418       C  0.38285191  0.34510750  0.26502871     1.08200
C1419       C  0.30557207  0.36407166  0.16224262     1.08300
C1420       C  0.34005831  0.30343538  0.17933282     1.08200
C1421       C  0.32340417  0.40027672  0.24792340     1.08200
O1422       O  0.35001773  0.18727319  0.31150921    -0.81400
O1423       O  0.32789433  0.23436838  0.36656276    -0.81400
O1424       O  0.32150576  0.14304104  0.36260716    -0.81400
O1425       O  0.39658241  0.25162574  0.36276437    -0.81400
O1426       O  0.31002400  0.18490071  0.35124161    -0.81500
O1427       O  0.36837953  0.23855326  0.32994777    -0.81400
O1428       O  0.35417255  0.25139288  0.39825307    -0.81400
O1429       O  0.35935433  0.14504698  0.32471624    -0.81400
C1430       C  0.34807715  0.16143766  0.30756584     1.08300
C1431       C  0.33284025  0.25376700  0.38266906     1.08200
C1432       C  0.30394022  0.15973686  0.35236667     1.08300
C1433       C  0.38311952  0.25710152  0.34093603     1.08200
O1434       O  0.42213420  0.21271620  0.34352109    -0.81400
O1435       O  0.32182216  0.16505484  0.40694589    -0.81500
O1436       O  0.40387869  0.14732112  0.36589006    -0.81400
O1437       O  0.37991988  0.20133407  0.42495068    -0.81400
O1438       O  0.33683868  0.21368219  0.42420363    -0.81400
O1439       O  0.40454015  0.16488009  0.32448509    -0.81400
O1440       O  0.42101959  0.20225616  0.38725892    -0.81400
O1441       O  0.36304886  0.14662855  0.40685567    -0.81400
Co1442     Co  0.38387521  0.20074455  0.33020804     1.51500
Co1443     Co  0.32672499  0.19960672  0.38513064     1.51700
Co1444     Co  0.36315321  0.14911262  0.36612538     1.51600
Co1445     Co  0.38664442  0.22358620  0.39202357     1.51500
O1446       O  0.36567290  0.19282943  0.36865417    -1.43300
C1447       C  0.43487695  0.20636815  0.36577069     1.08200
C1448       C  0.33923740  0.14831012  0.41725669     1.08300
C1449       C  0.41407067  0.14778411  0.34198077     1.08200
C1450       C  0.35834456  0.20698683  0.43794108     1.08200
O1451       O  0.13965852  0.09237496  0.35042159    -0.81400
O1452       O  0.06494064  0.15113280  0.27890937    -0.81400
O1453       O  0.09138739  0.13616635  0.35358774    -0.81400
O1454       O  0.10249444  0.06812190  0.29871687    -0.81400
O1455       O  0.08458311  0.17305483  0.32767697    -0.81500
O1456       O  0.14687755  0.06677769  0.29966497    -0.81400
O1457       O  0.06434621  0.10622594  0.28742440    -0.81400
O1458       O  0.14266893  0.12962067  0.37716382    -0.81400
C1459       C  0.14569529  0.10376952  0.37389882     1.08300
C1460       C  0.05178703  0.12853936  0.28268354     1.08200
C1461       C  0.07983711  0.15954808  0.34979083     1.08300
C1462       C  0.12420047  0.05404381  0.29957392     1.08200
O1463       O  0.16499682  0.11740837  0.27585079    -0.81400
O1464       O  0.13907431  0.18071965  0.30227898    -0.81500
O1465       O  0.17243538  0.13833010  0.33080488    -0.81400
O1466       O  0.09350853  0.12613129  0.24118738    -0.81400
O1467       O  0.12164853  0.15717733  0.25655673    -0.81400
O1468       O  0.18785022  0.09637389  0.32244062    -0.81400
O1469       O  0.13703819  0.08960746  0.25321550    -0.81400
O1470       O  0.13404697  0.17494603  0.34594582    -0.81400
Co1471     Co  0.15123623  0.10634323  0.31185094     1.51500
Co1472     Co  0.10346258  0.16373315  0.29156405     1.51700
Co1473     Co  0.13015481  0.13394167  0.34057163     1.51600
Co1474     Co  0.10047878  0.09884967  0.27232853     1.51500
O1475       O  0.11614596  0.12579752  0.30198419    -1.43300
C1476       C  0.16010692  0.10227899  0.25518351     1.08200
C1477       C  0.14237308  0.18975671  0.32640162     1.08300
C1478       C  0.19298399  0.12137864  0.32788744     1.08200
C1479       C  0.10636715  0.14853356  0.23768779     1.08200
O1480       O  0.31087772  0.10081354  0.19367105    -0.81400
O1481       O  0.27064286  0.16043186  0.09164046    -0.81400
O1482       O  0.33855752  0.17605104  0.16093728    -0.81400
O1483       O  0.24160552  0.10545939  0.15869587    -0.81400
O1484       O  0.30151917  0.17921881  0.13457358    -0.81500
O1485       O  0.26773606  0.07106995  0.17298815    -0.81400
O1486       O  0.24524508  0.14618668  0.12493538    -0.81400
O1487       O  0.29904207  0.14375200  0.18417685    -0.81400
C1488       C  0.30476503  0.12526627  0.20177035     1.08300
C1489       C  0.24946129  0.16345286  0.10638676     1.08200
C1490       C  0.31971042  0.19083081  0.15043951     1.08300
C1491       C  0.24704214  0.08711884  0.17605940     1.08200
O1492       O  0.30130591  0.05778442  0.12419265    -0.81400
O1493       O  0.32555750  0.16757047  0.08586613    -0.81500
O1494       O  0.35123600  0.12242909  0.16887171    -0.81400
O1495       O  0.26297822  0.10870423  0.07992326    -0.81400
O1496       O  0.30791049  0.11452694  0.08117078    -0.81400
O1497       O  0.34478809  0.08452148  0.14608406    -0.81400
O1498       O  0.25722336  0.06564350  0.11718575    -0.81400
O1499       O  0.34835367  0.14293352  0.11630225    -0.81400
Co1500     Co  0.30562700  0.08056034  0.15741034     1.51500
Co1501     Co  0.30519551  0.14421234  0.10896510     1.51700
Co1502     Co  0.32066475  0.14290193  0.14971445     1.51600
Co1503     Co  0.25425297  0.10710177  0.12103714     1.51500
O1504       O  0.29349334  0.11449333  0.13541352    -1.43300
C1505       C  0.27817044  0.04993968  0.11525662     1.08200
C1506       C  0.34836932  0.15795359  0.09427432     1.08300
C1507       C  0.36041732  0.09935577  0.16083301     1.08200
C1508       C  0.28616945  0.10928557  0.06764546     1.08200
O1509       O  0.09720827  0.34344947  0.16774737    -0.81400
O1510       O  0.12902651  0.31532297  0.07856864    -0.81400
O1511       O  0.15449881  0.35588024  0.10344440    -0.81400
O1512       O  0.07273347  0.28738042  0.11080643    -0.81400
O1513       O  0.18227691  0.32462225  0.08437964    -0.81500
O1514       O  0.07021883  0.29349927  0.15596027    -0.81400
O1515       O  0.11599273  0.27332055  0.07351730    -0.81400
O1516       O  0.11728341  0.37350698  0.13984292    -0.81400
C1517       C  0.09948349  0.36832657  0.15814601     1.08300
C1518       C  0.12218381  0.29590441  0.06282594     1.08200
C1519       C  0.17455991  0.34942772  0.08706575     1.08300
C1520       C  0.05858835  0.29208571  0.13235236     1.08200
O1521       O  0.11613127  0.26295203  0.18024013    -0.81400
O1522       O  0.18737600  0.30270959  0.13447125    -0.81500
O1523       O  0.15170813  0.34672496  0.16982601    -0.81400
O1524       O  0.14132137  0.24166145  0.11434385    -0.81400
O1525       O  0.16861385  0.27065348  0.09225080    -0.81400
O1526       O  0.14123865  0.31002655  0.19350614    -0.81400
O1527       O  0.09396163  0.24444082  0.14519806    -0.81400
O1528       O  0.17137418  0.34334684  0.14577743    -0.81400
Co1529     Co  0.10827098  0.30178195  0.17105433     1.51500
Co1530     Co  0.15731550  0.30719269  0.10792232     1.51700
Co1531     Co  0.13017482  0.33726519  0.13338969     1.51600
Co1532     Co  0.10759836  0.26503468  0.11268907     1.51500
O1533       O  0.12997314  0.29554477  0.13421458    -1.43300
C1534       C  0.10394259  0.24276050  0.16918613     1.08200
C1535       C  0.19203547  0.32624247  0.14461691     1.08300
C1536       C  0.15278334  0.33316317  0.19261518     1.08200
C1537       C  0.16420690  0.24724430  0.10298340     1.08200
O1538       O  0.64241895  0.31702482  0.19281336    -0.81400
O1539       O  0.66781586  0.37440157  0.22932364    -0.81400
O1540       O  0.67729559  0.36423184  0.16794738    -0.81400
O1541       O  0.59413812  0.36397748  0.25712514    -0.81400
O1542       O  0.69280730  0.40238898  0.18786437    -0.81500
O1543       O  0.62187148  0.33262159  0.24096929    -0.81400
O1544       O  0.63823374  0.39966461  0.25272287    -0.81400
O1545       O  0.63967893  0.32884715  0.14979671    -0.81400
C1546       C  0.64825379  0.31222321  0.16795816     1.08300
C1547       C  0.66124923  0.38642971  0.25160354     1.08200
C1548       C  0.69757197  0.38056274  0.17444402     1.08300
C1549       C  0.60751096  0.34170448  0.26039290     1.08200
O1550       O  0.56695610  0.34366153  0.21495800    -0.81400
O1551       O  0.64821489  0.41115352  0.15607150    -0.81500
O1552       O  0.59579033  0.36642170  0.14370095    -0.81400
O1553       O  0.60650701  0.42777572  0.20724946    -0.81400
O1554       O  0.65102864  0.42776714  0.21087998    -0.81400
O1555       O  0.58903711  0.32699921  0.16560229    -0.81400
O1556       O  0.56616751  0.38929670  0.21142166    -0.81400
O1557       O  0.64796916  0.37885260  0.12349443    -0.81400
Co1558     Co  0.60622885  0.33219164  0.20351237     1.51500
Co1559     Co  0.65624577  0.39066932  0.19384512     1.51700
Co1560     Co  0.63442295  0.36898833  0.15872388     1.51600
Co1561     Co  0.60246080  0.39418598  0.22959570     1.51500
O1562       O  0.62003234  0.37097692  0.19807479    -1.43300
C1563       C  0.55347592  0.36648505  0.21266416     1.08200
C1564       C  0.65408620  0.40334683  0.13102197     1.08300
C1565       C  0.58386572  0.34290239  0.14525921     1.08200
C1566       C  0.62874670  0.44091314  0.20831926     1.08200
O1567       O  0.59335590  0.16001739  0.33009758    -0.81400
O1568       O  0.65357711  0.20840497  0.43075654    -0.81400
O1569       O  0.65367338  0.12269504  0.37783234    -0.81400
O1570       O  0.56887326  0.20463742  0.38833070    -0.81400
O1571       O  0.65403695  0.15428654  0.41121200    -0.81500
O1572       O  0.56995684  0.20964828  0.34326922    -0.81400
O1573       O  0.60901281  0.20327805  0.42901600    -0.81400
O1574       O  0.60204365  0.14296297  0.37143299    -0.81400
C1575       C  0.59016788  0.14110969  0.34814819     1.08300
C1576       C  0.63070504  0.20629495  0.44336010     1.08200
C1577       C  0.65723613  0.12881705  0.40295900     1.08300
C1578       C  0.55630634  0.20580488  0.36530873     1.08200
O1579       O  0.62243701  0.23695184  0.33164366    -0.81400
O1580       O  0.69833455  0.18670892  0.40045752    -0.81500
O1581       O  0.64303350  0.14672650  0.32921483    -0.81400
O1582       O  0.63672021  0.25038684  0.40205933    -0.81400
O1583       O  0.66922797  0.23000426  0.37757168    -0.81400
O1584       O  0.64520788  0.18903493  0.31529805    -0.81400
O1585       O  0.59474376  0.25247170  0.36375729    -0.81400
O1586       O  0.68027621  0.16892760  0.36224859    -0.81400
Co1587     Co  0.60906708  0.19900614  0.33234255     1.51500
Co1588     Co  0.66019830  0.19298144  0.39205240     1.51700
Co1589     Co  0.63958703  0.15782880  0.36942908     1.51600
Co1590     Co  0.60353035  0.22532457  0.39477131     1.51500
O1591       O  0.62402558  0.19616806  0.37145307    -1.43300
C1592       C  0.60737935  0.25583734  0.34108309     1.08200
C1593       C  0.70152680  0.17458776  0.37730373     1.08300
C1594       C  0.65020509  0.16382713  0.31099966     1.08200
C1595       C  0.65922530  0.25168268  0.38853735     1.08200
O1596       O  0.81816910  0.39868493  0.30610370    -0.81400
O1597       O  0.75946956  0.33053725  0.37701537    -0.81400
O1598       O  0.85124383  0.32865392  0.36538067    -0.81400
O1599       O  0.74824577  0.39879638  0.35893795    -0.81400
O1600       O  0.80873512  0.31549285  0.35964239    -0.81500
O1601       O  0.77285147  0.37468240  0.32921154    -0.81400
O1602       O  0.74160892  0.36281188  0.40263598    -0.81400
O1603       O  0.83640011  0.36187988  0.32566623    -0.81400
C1604       C  0.83186539  0.37638377  0.30374225     1.08300
C1605       C  0.73884081  0.34034104  0.38907162     1.08200
C1606       C  0.83401211  0.31097155  0.35654080     1.08300
C1607       C  0.74994947  0.38529466  0.33608457     1.08200
O1608       O  0.79146167  0.42868624  0.34745443    -0.81400
O1609       O  0.83297922  0.32825409  0.41375569    -0.81500
O1610       O  0.87837703  0.37875597  0.35834809    -0.81400
O1611       O  0.78738095  0.38945740  0.43182805    -0.81400
O1612       O  0.78275307  0.34416663  0.43241998    -0.81400
O1613       O  0.84523077  0.41023806  0.35384609    -0.81400
O1614       O  0.79231816  0.42758256  0.39221175    -0.81400
O1615       O  0.85290620  0.36878823  0.40838877    -0.81400
Co1616     Co  0.80809084  0.39007716  0.34304221     1.51500
Co1617     Co  0.79601789  0.33184552  0.39436053     1.51700
Co1618     Co  0.84180161  0.36889727  0.36856495     1.51600
Co1619     Co  0.76978651  0.39363246  0.39541016     1.51500
O1620       O  0.80141293  0.37038992  0.37909044    -1.43300
C1621       C  0.79216721  0.44153799  0.37043208     1.08200
C1622       C  0.85188744  0.34538645  0.42041217     1.08300
C1623       C  0.87109875  0.40321131  0.35200068     1.08200
C1624       C  0.78671646  0.36710499  0.44512511     1.08200
O1625       O  0.64855575  0.09956597  0.14231636    -0.81400
O1626       O  0.69039657  0.12476055  0.07878283    -0.81400
O1627       O  0.65163645  0.15628142  0.11684391    -0.81400
O1628       O  0.73573797  0.07329271  0.11907695    -0.81400
O1629       O  0.67415112  0.17815293  0.08382449    -0.81500
O1630       O  0.69073545  0.07044028  0.11993714    -0.81400
O1631       O  0.73485308  0.11625772  0.08059567    -0.81400
O1632       O  0.64531890  0.13569416  0.16820687    -0.81400
C1633       C  0.63440494  0.11389071  0.15882012     1.08300
C1634       C  0.71235120  0.11776621  0.06657971     1.08200
C1635       C  0.65165901  0.16945255  0.09367050     1.08300
C1636       C  0.71379497  0.05919626  0.11636750     1.08200
O1637       O  0.72297681  0.07734808  0.17091645    -0.81400
O1638       O  0.69756792  0.18894873  0.13306879    -0.81500
O1639       O  0.69872580  0.15127438  0.18658491    -0.81400
O1640       O  0.75494065  0.15313946  0.12521826    -0.81400
O1641       O  0.72915343  0.16812890  0.09168305    -0.81400
O1642       O  0.68242386  0.10909565  0.19218546    -0.81400
O1643       O  0.75194797  0.11114290  0.16134681    -0.81400
O1644       O  0.66266405  0.18759296  0.16226417    -0.81400
Co1645     Co  0.68681097  0.09097552  0.15457087     1.51500
Co1646     Co  0.69337712  0.15399698  0.10749065     1.51700
Co1647     Co  0.67832036  0.15382738  0.15092835     1.51600
Co1648     Co  0.74196512  0.11444417  0.12240108     1.51500
O1649       O  0.70295388  0.12454394  0.13519105    -1.43300
C1650       C  0.74521225  0.09056134  0.17566457     1.08200
C1651       C  0.68052272  0.20136366  0.14945150     1.08300
C1652       C  0.69038948  0.13221792  0.20241820     1.08200
C1653       C  0.75124523  0.16987039  0.10575680     1.08200
O1654       O  0.91751440  0.16842020  0.33888765    -0.81400
O1655       O  0.88142876  0.07997090  0.31061523    -0.81400
O1656       O  0.85273324  0.11211823  0.36459166    -0.81400
O1657       O  0.91668041  0.12373276  0.25340884    -0.81400
O1658       O  0.83266192  0.08055220  0.33832602    -0.81500
O1659       O  0.92870130  0.13283054  0.29618356    -0.81400
O1660       O  0.88050383  0.08165073  0.26540504    -0.81400
O1661       O  0.89586837  0.14029111  0.36546403    -0.81400
C1662       C  0.91426703  0.15789571  0.36258440     1.08300
C1663       C  0.88561502  0.06837602  0.28736262     1.08200
C1664       C  0.83874464  0.08979750  0.36203120     1.08300
C1665       C  0.93487314  0.12452341  0.27255635     1.08200
O1666       O  0.90660394  0.17516993  0.25888228    -0.81400
O1667       O  0.81429740  0.12954606  0.31657613    -0.81500
O1668       O  0.86453003  0.18395258  0.34399995    -0.81400
O1669       O  0.83434741  0.11901315  0.25455076    -0.81400
O1670       O  0.82948100  0.08552833  0.28343570    -0.81400
O1671       O  0.87991911  0.19638581  0.30313389    -0.81400
O1672       O  0.86771021  0.15943197  0.24353584    -0.81400
O1673       O  0.82979418  0.15585250  0.34914036    -0.81400
Co1674     Co  0.90431231  0.16423011  0.29921343     1.51500
Co1675     Co  0.84955372  0.10596269  0.31397575     1.51700
Co1676     Co  0.86559251  0.14295252  0.33902196     1.51600
Co1677     Co  0.87460954  0.12193793  0.25708399     1.51500
O1678       O  0.87166504  0.13641538  0.29722061    -1.43300
C1679       C  0.88687290  0.17646040  0.24159787     1.08200
C1680       C  0.80978605  0.14760146  0.33535195     1.08300
C1681       C  0.86802676  0.20206029  0.32551000     1.08200
C1682       C  0.82256077  0.09706648  0.26118226     1.08200
O1683       O  0.89322196  0.33019744  0.19154940    -0.81400
O1684       O  0.82506014  0.27544240  0.11223388    -0.81400
O1685       O  0.82468735  0.36578345  0.13139370    -0.81400
O1686       O  0.89455104  0.26128868  0.13571317    -0.81400
O1687       O  0.81087182  0.32349911  0.13203740    -0.81500
O1688       O  0.86993994  0.28532629  0.16582476    -0.81400
O1689       O  0.85918404  0.25644969  0.09004301    -0.81400
O1690       O  0.85477271  0.34511627  0.17254199    -0.81400
C1691       C  0.86991806  0.34184229  0.19430251     1.08300
C1692       C  0.83487132  0.25499806  0.09980406     1.08200
C1693       C  0.80627653  0.34840501  0.13744930     1.08300
C1694       C  0.88221439  0.26326064  0.15890082     1.08200
O1695       O  0.92383590  0.30421911  0.15071918    -0.81400
O1696       O  0.82966139  0.35098630  0.08137435    -0.81500
O1697       O  0.87392938  0.38969678  0.14575977    -0.81400
O1698       O  0.88845958  0.30198006  0.06434947    -0.81400
O1699       O  0.84334513  0.30029829  0.06006971    -0.81400
O1700       O  0.90603451  0.35721896  0.14445848    -0.81400
O1701       O  0.92520141  0.30484394  0.10599711    -0.81400
O1702       O  0.87013879  0.36788769  0.09382951    -0.81400
Co1703     Co  0.88550715  0.32071136  0.15376320     1.51500
Co1704     Co  0.82942644  0.31254445  0.09783677     1.51700
Co1705     Co  0.86476594  0.35419875  0.13159362     1.51600
Co1706     Co  0.89055239  0.28346767  0.10015705     1.51500
O1707       O  0.86690607  0.31485010  0.11673104    -1.43300
C1708       C  0.93790767  0.30476283  0.12876082     1.08200
C1709       C  0.84826257  0.36949065  0.07949918     1.08300
C1710       C  0.89882448  0.38249419  0.14957306     1.08200
C1711       C  0.86714614  0.30264368  0.04925567     1.08200
O1712       O  0.71771098  0.02912331  0.54043691    -0.81400
O1713       O  0.70981414  0.97825000  0.48341826    -0.81400
O1714       O  0.73065058  0.04639943  0.48077945    -0.81400
O1715       O  0.74820964  0.94012200  0.53654781    -0.81400
O1716       O  0.71861180  0.01936875  0.44552941    -0.81500
O1717       O  0.71666908  0.97161630  0.54607078    -0.81400
O1718       O  0.73981572  0.94373613  0.48288440    -0.81400
O1719       O  0.74926661  0.05927942  0.52860388    -0.81400
C1720       C  0.72580062  0.05388966  0.53892054     1.08300
C1721       C  0.71520859  0.95274908  0.47997413     1.08200
C1722       C  0.71634416  0.04223290  0.45853034     1.08300
C1723       C  0.72472961  0.94662516  0.54623970     1.08200
O1724       O  0.77241916  0.97387441  0.56665141    -0.81400
O1725       O  0.77278098  0.02678392  0.45751443    -0.81500
O1726       O  0.80124189  0.02977416  0.52406326    -0.81400
O1727       O  0.79372168  0.96908583  0.47541506    -0.81400
O1728       O  0.75790502  0.97582135  0.44848872    -0.81400
O1729       O  0.77432563  0.02861309  0.56073658    -0.81400
O1730       O  0.80141687  0.96588223  0.53277615    -0.81400
O1731       O  0.78385480  0.06435265  0.48192347    -0.81400
Co1732     Co  0.74504402  0.00075528  0.55094169     1.51500
Co1733     Co  0.74013922  0.00371569  0.47430514     1.51700
Co1734     Co  0.76762041  0.03418531  0.50084000     1.51600
Co1735     Co  0.77094005  0.95733121  0.50688664     1.51500
O1736       O  0.75638353  0.99620681  0.51124593    -1.43300
C1737       C  0.79560872  0.96480407  0.55816849     1.08200
C1738       C  0.78460894  0.05065933  0.45940051     1.08300
C1739       C  0.79788141  0.03272050  0.54992213     1.08200
C1740       C  0.78246530  0.96684414  0.45184481     1.08200
C1741       C  0.82720331  0.07696170  0.38673397    -0.07400
C1742       C  0.79958744  0.06927242  0.38511778    -0.18500
C1743       C  0.78527273  0.06118440  0.40846092     0.09800
C1744       C  0.79864927  0.06126051  0.43462410    -0.07300
C1745       C  0.82652095  0.06891019  0.43629041    -0.18500
C1746       C  0.84111793  0.07604870  0.41246213     0.09800
S1747       S  0.74946562  0.05256390  0.40392631    -0.33500
S1748       S  0.87770654  0.08166579  0.41579675    -0.33500
H1749       H  0.88425270  0.07374595  0.38863706     0.27900
H1750       H  0.74891635  0.05105150  0.37492369     0.27800
H1751       H  0.78879820  0.07075987  0.36550819     0.18400
H1752       H  0.83726161  0.06808284  0.45597854     0.18400
C1753       C  0.88624987  0.19759966  0.21910312    -0.07400
C1754       C  0.90337529  0.22088546  0.22163470    -0.18500
C1755       C  0.90264441  0.24222868  0.20208707     0.09800
C1756       C  0.88436022  0.24058130  0.17929590    -0.07300
C1757       C  0.86746224  0.21736605  0.17640009    -0.18500
C1758       C  0.86840967  0.19564602  0.19561565     0.09800
S1759       S  0.92486635  0.27175411  0.20683014    -0.33500
S1760       S  0.84721999  0.16549096  0.18898003    -0.33500
H1761       H  0.83474557  0.17461677  0.16434779     0.27900
H1762       H  0.94179161  0.26023295  0.22752684     0.27800
H1763       H  0.91699844  0.22270737  0.23936770     0.18400
H1764       H  0.85318702  0.21654067  0.15917454     0.18400
C1765       C  0.76463906  0.08181793  0.19745459    -0.07400
C1766       C  0.75557880  0.07996872  0.22485419    -0.18500
C1767       C  0.77465172  0.08134553  0.24694658     0.09800
C1768       C  0.80288219  0.08494341  0.24120014    -0.07300
C1769       C  0.81191558  0.08295914  0.21387524    -0.18500
C1770       C  0.79320245  0.08113072  0.19203236     0.09800
S1771       S  0.76275419  0.08122341  0.28205658    -0.33500
S1772       S  0.80703023  0.08052270  0.15755420    -0.33500
H1773       H  0.78464861  0.06628255  0.14562558     0.27900
H1774       H  0.73446395  0.07870456  0.27581633     0.27800
H1775       H  0.73364133  0.08001469  0.22893391     0.18400
H1776       H  0.83371486  0.08491140  0.20939186     0.18400
C1777       C  0.77302904  0.19085495  0.09979946    -0.07400
C1778       C  0.80105657  0.18383172  0.10411629    -0.18500
C1779       C  0.82234949  0.20337941  0.10116743     0.09800
C1780       C  0.81563833  0.23117243  0.09538405    -0.07300
C1781       C  0.78778988  0.23775045  0.08962533    -0.18500
C1782       C  0.76660464  0.21804120  0.09137141     0.09800
S1783       S  0.85736510  0.19191066  0.10614693    -0.33500
S1784       S  0.73134033  0.22866181  0.08494230    -0.33500
H1785       H  0.73687623  0.25621095  0.07772869     0.27900
H1786       H  0.86741403  0.20600404  0.08304895     0.27800
H1787       H  0.80645272  0.16287644  0.10991039     0.18400
H1788       H  0.78246831  0.25894721  0.08475787     0.18400
C1789       C  0.85962275  0.35059622  0.22205833    -0.07400
C1790       C  0.86992881  0.33730134  0.24565035    -0.18500
C1791       C  0.86153124  0.34500424  0.27239115     0.09800
C1792       C  0.84171980  0.36653612  0.27597534    -0.07300
C1793       C  0.83161265  0.37989532  0.25225336    -0.18500
C1794       C  0.84039207  0.37248882  0.22560650     0.09800
S1795       S  0.87790790  0.32795739  0.30130814    -0.33500
S1796       S  0.82830617  0.39293973  0.19681471    -0.33500
H1797       H  0.80675543  0.40664698  0.21061894     0.27900
H1798       H  0.89267030  0.30785380  0.28632359     0.27800
H1799       H  0.88495015  0.32088904  0.24308042     0.18400
H1800       H  0.81705669  0.39675289  0.25460049     0.18400
C1801       C  0.84324741  0.28429895  0.34497336    -0.07400
C1802       C  0.86941842  0.27462396  0.35291631    -0.18500
C1803       C  0.87804645  0.24796634  0.34601230     0.09800
C1804       C  0.86015868  0.23057550  0.33108295    -0.07300
C1805       C  0.83454272  0.24033216  0.32191323    -0.18500
C1806       C  0.82593346  0.26714345  0.32847525     0.09800
S1807       S  0.91176063  0.23602079  0.35667104    -0.33500
S1808       S  0.79300544  0.27809603  0.31480463    -0.33500
H1809       H  0.80222595  0.30482025  0.30821944     0.27900
H1810       H  0.91994667  0.26019366  0.37075371     0.27800
H1811       H  0.88280327  0.28763744  0.36538156     0.18400
H1812       H  0.82111700  0.22690065  0.30991174     0.18400
C1813       C  0.78183915  0.15722478  0.34351032    -0.07400
C1814       C  0.75941082  0.14030582  0.33691085    -0.18500
C1815       C  0.73346799  0.14476859  0.34858985     0.09800
C1816       C  0.72912932  0.16790705  0.36618786    -0.07300
C1817       C  0.75132660  0.18520900  0.37256469    -0.18500
C1818       C  0.77764426  0.18010438  0.36183020     0.09800
S1819       S  0.70708168  0.11907334  0.34252216    -0.33500
S1820       S  0.80530546  0.20273764  0.37304920    -0.33500
H1821       H  0.78878167  0.22408761  0.38391880     0.27900
H1822       H  0.72465978  0.09777398  0.33334136     0.27800
H1823       H  0.76262805  0.12242387  0.32387987     0.18400
H1824       H  0.74804783  0.20264966  0.38628493     0.18400
C1825       C  0.66200727  0.15437038  0.28420458    -0.07400
C1826       C  0.68818743  0.16345164  0.27564964    -0.18500
C1827       C  0.69911817  0.15543672  0.24981675     0.09800
C1828       C  0.68335994  0.13841867  0.23180596    -0.07300
C1829       C  0.65753103  0.12906921  0.24083347    -0.18500
C1830       C  0.64665846  0.13702252  0.26638687     0.09800
S1831       S  0.73343867  0.16673132  0.24146718    -0.33500
S1832       S  0.61175348  0.12732343  0.27450593    -0.33500
H1833       H  0.60837036  0.10742553  0.25345566     0.27900
H1834       H  0.73970388  0.14421037  0.22407348     0.27800
H1835       H  0.70025810  0.17664986  0.28924577     0.18400
H1836       H  0.64491435  0.11667216  0.22700488     0.18400
C1837       C  0.66707158  0.10718154  0.42205351    -0.07400
C1838       C  0.68952413  0.11390742  0.43900933    -0.18500
C1839       C  0.70581686  0.09333888  0.45124003     0.09800
C1840       C  0.69850681  0.06501316  0.44787491    -0.07300
C1841       C  0.67485718  0.05847279  0.43226911    -0.18500
C1842       C  0.65915741  0.07915324  0.41933099     0.09800
S1843       S  0.73801420  0.10406492  0.46700443    -0.33500
S1844       S  0.62961951  0.06841955  0.39913589    -0.33500
H1845       H  0.61472762  0.09320256  0.40262223     0.27900
H1846       H  0.73245040  0.13261188  0.46832173     0.27800
H1847       H  0.69604047  0.13528920  0.44029713     0.18400
H1848       H  0.66891430  0.03704588  0.42955137     0.18400
C1849       C  0.67506793  0.27819380  0.38685419    -0.07400
C1850       C  0.67700332  0.29601085  0.40994631    -0.18500
C1851       C  0.69535009  0.31870207  0.41047152     0.09800
C1852       C  0.71280246  0.32351874  0.38769290    -0.07300
C1853       C  0.70863870  0.30727018  0.36382639    -0.18500
C1854       C  0.69011415  0.28503103  0.36300584     0.09800
S1855       S  0.69685437  0.33941287  0.44136529    -0.33500
S1856       S  0.68611867  0.26547205  0.33126926    -0.33500
H1857       H  0.70510938  0.28039216  0.31542743     0.27900
H1858       H  0.69644312  0.36464278  0.42708104     0.27800
H1859       H  0.66506018  0.29154485  0.42819428     0.18400
H1860       H  0.72110029  0.31119755  0.34587444     0.18400
C1861       C  0.72616301  0.37329880  0.16695210    -0.07400
C1862       C  0.73429155  0.34562042  0.16871665    -0.18500
C1863       C  0.76068116  0.33705304  0.16071545     0.09800
C1864       C  0.77936737  0.35669213  0.14967543    -0.07300
C1865       C  0.77135086  0.38462230  0.14865740    -0.18500
C1866       C  0.74505997  0.39317716  0.15724525     0.09800
S1867       S  0.76988336  0.30106661  0.16574505    -0.33500
S1868       S  0.73542534  0.42920325  0.15398834    -0.33500
H1869       H  0.75878625  0.43775056  0.13929671     0.27900
H1870       H  0.74364724  0.29145598  0.17330892     0.27800
H1871       H  0.71984531  0.33068009  0.17671475     0.18400
H1872       H  0.78549121  0.39971405  0.14043324     0.18400
C1873       C  0.66370532  0.28652470  0.16111077    -0.07400
C1874       C  0.67352682  0.27057650  0.18337256    -0.18500
C1875       C  0.68211422  0.24331620  0.17965166     0.09800
C1876       C  0.68111327  0.23144676  0.15313176    -0.07300
C1877       C  0.67440408  0.24802595  0.13039957    -0.18500
C1878       C  0.66607139  0.27558372  0.13400253     0.09800
S1879       S  0.69241289  0.22406520  0.20976414    -0.33500
S1880       S  0.65697151  0.29461587  0.10340237    -0.33500
H1881       H  0.67227939  0.31807266  0.11137397     0.27900
H1882       H  0.71051477  0.20633775  0.19552799     0.27800
H1883       H  0.67314779  0.27879023  0.20422498     0.18400
H1884       H  0.67371461  0.23891347  0.10991118     0.18400
C1885       C  0.60283315  0.32305583  0.28395464    -0.07400
C1886       C  0.59215766  0.29701037  0.27706506    -0.18500
C1887       C  0.59216389  0.27538586  0.29598696     0.09800
C1888       C  0.60231258  0.27986424  0.32304057    -0.07300
C1889       C  0.61174135  0.30630135  0.33062660    -0.18500
C1890       C  0.61237243  0.32794941  0.31126583     0.09800
S1891       S  0.58096810  0.24151448  0.28458805    -0.33500
S1892       S  0.62840005  0.35988710  0.32195771    -0.33500
H1893       H  0.61553283  0.37693332  0.30239182     0.27900
H1894       H  0.57056465  0.24942363  0.25861725     0.27800
H1895       H  0.58524333  0.29316678  0.25606870     0.18400
H1896       H  0.62032477  0.30958447  0.35110731     0.18400
C1897       C  0.68187232  0.38570525  0.27532888    -0.07400
C1898       C  0.70173306  0.36435353  0.27550336    -0.18500
C1899       C  0.72325581  0.36304883  0.29515853     0.09800
C1900       C  0.72560453  0.38359754  0.31624192    -0.07300
C1901       C  0.70512108  0.40444545  0.31677068    -0.18500
C1902       C  0.68394517  0.40607626  0.29648767     0.09800
S1903       S  0.74706590  0.33456657  0.29102588    -0.33500
S1904       S  0.66169908  0.43592144  0.29762650    -0.33500
H1905       H  0.66490648  0.44207249  0.26948432     0.27900
H1906       H  0.75257032  0.33061379  0.31913596     0.27800
H1907       H  0.70078062  0.34838467  0.25973047     0.18400
H1908       H  0.70647509  0.42066861  0.33224384     0.18400
C1909       C  0.02762816  0.29485878  0.13088927    -0.07400
C1910       C  0.01492895  0.30956939  0.10924753    -0.18500
C1911       C  0.98609311  0.31419746  0.10849814     0.09800
C1912       C  0.96895187  0.30343488  0.12955751    -0.07300
C1913       C  0.98175113  0.28889144  0.15110723    -0.18500
C1914       C  0.01034458  0.28414791  0.15180077     0.09800
S1915       S  0.97273812  0.33515091  0.08078298    -0.33500
S1916       S  0.02294908  0.26235366  0.17912231    -0.33500
H1917       H  0.04107520  0.24737522  0.16211543     0.27900
H1918       H  0.95329949  0.34914981  0.09722220     0.27800
H1919       H  0.02763774  0.31828598  0.09321488     0.18400
H1920       H  0.96919615  0.27989613  0.16705773     0.18400
C1921       C  0.18681254  0.22676869  0.10349751    -0.07400
C1922       C  0.20191263  0.22096135  0.07941494    -0.18500
C1923       C  0.22301039  0.20085201  0.07932784     0.09800
C1924       C  0.22964462  0.18683326  0.10405888    -0.07300
C1925       C  0.21535541  0.19401176  0.12826942    -0.18500
C1926       C  0.19438364  0.21369732  0.12833373     0.09800
S1927       S  0.23957014  0.19321275  0.04700465    -0.33500
S1928       S  0.17883923  0.22174038  0.16119641    -0.33500
H1929       H  0.17531214  0.25015420  0.15624903     0.27900
H1930       H  0.23838853  0.16433376  0.05013608     0.27800
H1931       H  0.19659204  0.23143373  0.06038156     0.18400
H1932       H  0.22059496  0.18416221  0.14766926     0.18400
C1933       C  0.96448520  0.11987667  0.26817262    -0.07400
C1934       C  0.97792776  0.10394141  0.28826767    -0.18500
C1935       C  0.00579348  0.10770605  0.29443665     0.09800
C1936       C  0.02146197  0.12685787  0.27914357    -0.07300
C1937       C  0.00842771  0.14167530  0.25779250    -0.18500
C1938       C  0.98002085  0.13848761  0.25227084     0.09800
S1939       S  0.01934397  0.08906059  0.32375834    -0.33500
S1940       S  0.96341430  0.15944554  0.22621760    -0.33500
H1941       H  0.98667864  0.17528133  0.21947734     0.27900
H1942       H  0.03675346  0.11054848  0.33283038     0.27800
H1943       H  0.96590198  0.09040356  0.30124461     0.18400
H1944       H  0.02051693  0.15570633  0.24548173     0.18400
C1945       C  0.09879512  0.16868051  0.21644296    -0.07400
C1946       C  0.08735776  0.19346485  0.22649709    -0.18500
C1947       C  0.08851946  0.21782655  0.21131974     0.09800
C1948       C  0.10024590  0.21718174  0.18487127    -0.07300
C1949       C  0.10948057  0.19191403  0.17368805    -0.18500
C1950       C  0.10930876  0.16766811  0.18945302     0.09800
S1951       S  0.07628093  0.24980685  0.22652758    -0.33500
S1952       S  0.12520264  0.13705388  0.17525522    -0.33500
H1953       H  0.11038503  0.11812101  0.19120849     0.27900
H1954       H  0.06557255  0.23834742  0.25079002     0.27800
H1955       H  0.07972971  0.19425374  0.24743363     0.18400
H1956       H  0.11838673  0.19143307  0.15324355     0.18400
C1957       C  0.18286845  0.09768697  0.23516299    -0.07400
C1958       C  0.18621347  0.07165640  0.22236238    -0.18500
C1959       C  0.20887343  0.06599769  0.20512260     0.15800
C1960       C  0.22871335  0.08678176  0.20040783    -0.07300
C1961       C  0.22578875  0.11230833  0.21403232    -0.18500
C1962       C  0.20311228  0.11821752  0.23077085     0.09800
S1963       S  0.21043855  0.03255665  0.18869142    -0.33500
S1964       S  0.19964731  0.15288736  0.24469719    -0.33500
H1965       H  0.21797684  0.16573652  0.22651001     0.27900
H1966       H  0.23936236  0.03101422  0.18810430     0.27800
H1967       H  0.17120588  0.05553765  0.22594531     0.18400
H1968       H  0.24065662  0.12846323  0.21005614     0.18400
C1969       C  0.46593901  0.20506986  0.36644623    -0.07400
C1970       C  0.48011227  0.20465315  0.34123845    -0.18500
C1971       C  0.50914928  0.20416259  0.33994027     0.09800
C1972       C  0.52515246  0.20468361  0.36466357    -0.07300
C1973       C  0.51091397  0.20464458  0.38991878    -0.18500
C1974       C  0.48185907  0.20470836  0.39120475     0.09800
S1975       S  0.52484638  0.20184113  0.30629439    -0.33500
S1976       S  0.46599755  0.20551600  0.42489422    -0.33500
H1977       H  0.48989249  0.19977915  0.44054494     0.27900
H1978       H  0.50053862  0.19805134  0.29071145     0.27800
H1979       H  0.46826007  0.20461637  0.32222223     0.18400
H1980       H  0.52265047  0.20504577  0.40899601     0.18400
C1981       C  0.27574073  0.15058597  0.34448062    -0.07400
C1982       C  0.27202582  0.12511557  0.33092840    -0.18500
C1983       C  0.24555883  0.11565497  0.32354012     0.09800
C1984       C  0.22192479  0.13155388  0.33069207    -0.07300
C1985       C  0.22596025  0.15763078  0.34292275    -0.18500
C1986       C  0.25220836  0.16694783  0.35044313     0.09800
S1987       S  0.24371008  0.08379296  0.30412566    -0.33500
S1988       S  0.25363439  0.19875198  0.37002071    -0.33500
H1989       H  0.27277741  0.18878799  0.38955544     0.27900
H1990       H  0.22398456  0.09388038  0.28520393     0.27800
H1991       H  0.28991021  0.11270786  0.32563665     0.18400
H1992       H  0.20832972  0.17031642  0.34840359     0.18400
C1993       C  0.33379983  0.15029896  0.28242117    -0.07400
C1994       C  0.31485274  0.16725512  0.26816343    -0.18500
C1995       C  0.30273509  0.15883097  0.24295133     0.09800
C1996       C  0.31000195  0.13291098  0.23131358    -0.07300
C1997       C  0.32697554  0.11510146  0.24685153    -0.18500
C1998       C  0.33906511  0.12335865  0.27191859     0.09800
S1999       S  0.27772821  0.18114247  0.22636186    -0.33500
S2000       S  0.36318701  0.09977669  0.28829703    -0.33500
H2001       H  0.35634776  0.07603559  0.27279965     0.27900
H2002       H  0.28038490  0.20373670  0.24461084     0.27800
H2003       H  0.30977238  0.18736576  0.27668263     0.18400
H2004       H  0.33261006  0.09514753  0.23834457     0.18400
C2005       C  0.46309021  0.36926865  0.21078752    -0.07400
C2006       C  0.47744574  0.35071374  0.22818852    -0.18500
C2007       C  0.50642473  0.34945013  0.22935693     0.09800
C2008       C  0.52237021  0.36698165  0.21257421    -0.07300
C2009       C  0.50816247  0.38564614  0.19515242    -0.18500
C2010       C  0.47892832  0.38660697  0.19367768     0.09800
S2011       S  0.52164894  0.32576991  0.25374047    -0.33500
S2012       S  0.46228153  0.40836911  0.16838005    -0.33500
H2013       H  0.48646791  0.41920115  0.15685342     0.27900
H2014       H  0.54185452  0.34447276  0.26311079     0.27800
H2015       H  0.46594309  0.33718488  0.24159581     0.18400
H2016       H  0.52011607  0.39893369  0.18194567     0.18400
C2017       C  0.31829840  0.22056463  0.15755591    -0.07400
C2018       C  0.32090325  0.22814763  0.18535362    -0.18500
C2019       C  0.32374270  0.25577566  0.19335864     0.09800
C2020       C  0.32649149  0.27649035  0.17296899    -0.07300
C2021       C  0.32187111  0.26912092  0.14515430    -0.18500
C2022       C  0.31736277  0.24140573  0.13728985     0.09800
S2023       S  0.32436826  0.26282156  0.22997736    -0.33500
S2024       S  0.31357352  0.23261470  0.10118607    -0.33500
H2025       H  0.31209265  0.25989074  0.09133449     0.27900
H2026       H  0.31094343  0.28858590  0.22766023     0.27800
H2027       H  0.32124388  0.21229267  0.20102771     0.18400
H2028       H  0.32374285  0.28474472  0.12938361     0.18400
C2029       C  0.27639660  0.35472858  0.15669012    -0.07400
C2030       C  0.27007543  0.32639007  0.15903283    -0.18500
C2031       C  0.24277860  0.31660616  0.15690661     0.09800
C2032       C  0.22067673  0.33527679  0.15238218    -0.07300
C2033       C  0.22691574  0.36366133  0.15060450    -0.18500
C2034       C  0.25426683  0.37335470  0.15186824     0.09800
S2035       S  0.23790313  0.27989941  0.16085927    -0.33500
S2036       S  0.25943191  0.40945992  0.14455555    -0.33500
H2037       H  0.28312494  0.40488063  0.12852283     0.27900
H2038       H  0.21354436  0.28276453  0.17626123     0.27800
H2039       H  0.28557466  0.31231437  0.16313277     0.18400
H2040       H  0.21060709  0.37830107  0.14616825     0.18400
C2041       C  0.38577646  0.33062814  0.29167491    -0.07400
C2042       C  0.41006053  0.31537433  0.29625571    -0.18500
C2043       C  0.41036327  0.29239788  0.31389943     0.09800
C2044       C  0.38581964  0.28431265  0.32727538    -0.07300
C2045       C  0.36222730  0.30087111  0.32435346    -0.18500
C2046       C  0.36198290  0.32379747  0.30683798     0.09800
S2047       S  0.44152550  0.27204743  0.31541271    -0.33500
S2048       S  0.32997604  0.34230094  0.30265409    -0.33500
H2049       H  0.34309551  0.36780944  0.29868738     0.27900
H2050       H  0.44118572  0.26912446  0.34422941     0.27800
H2051       H  0.42817604  0.31973624  0.28406400     0.18400
H2052       H  0.34351377  0.29531751  0.33495831     0.18400
C2053       C  0.18442601  0.35943808  0.27244661    -0.07400
C2054       C  0.17239900  0.37874320  0.25425985    -0.18500
C2055       C  0.16410915  0.37139259  0.22725678     0.09800
C2056       C  0.16755320  0.34387492  0.21779286    -0.07300
C2057       C  0.18173949  0.32519145  0.23500825    -0.18500
C2058       C  0.19097127  0.33285067  0.26161951     0.09800
S2059       S  0.14691243  0.39689203  0.20617069    -0.33500
S2060       S  0.21104698  0.30768249  0.28039540    -0.33500
H2061       H  0.22911866  0.32738907  0.29202171     0.27900
H2062       H  0.14346532  0.41717901  0.22679938     0.27800
H2063       H  0.16805901  0.39943952  0.26168127     0.18400
H2064       H  0.18530471  0.30422391  0.22780856     0.18400
C2065       C  0.17080369  0.27190843  0.34572047    -0.07400
C2066       C  0.16141093  0.26552752  0.31901826    -0.18500
C2067       C  0.15353627  0.23870475  0.31153185     0.09800
C2068       C  0.15474459  0.21743611  0.33154729    -0.07300
C2069       C  0.16621997  0.22342095  0.35771545    -0.18500
C2070       C  0.17456227  0.25039956  0.36490663     0.09800
S2071       S  0.13986480  0.23308324  0.27702061    -0.33500
S2072       S  0.18757192  0.25748593  0.39924015    -0.33500
H2073       H  0.19010934  0.22974616  0.40751479     0.27900
H2074       H  0.14211271  0.26039049  0.26746547     0.27800
H2075       H  0.15877441  0.28215382  0.30435504     0.18400
H2076       H  0.16770771  0.20712721  0.37288516     0.18400
C2077       C  0.26454420  0.30939163  0.39845118    -0.07400
C2078       C  0.26373413  0.29104829  0.37614168    -0.18500
C2079       C  0.28655773  0.27501869  0.36900012     0.09800
C2080       C  0.31071587  0.27513329  0.38611852    -0.07300
C2081       C  0.31136014  0.29338213  0.40881658    -0.18500
C2082       C  0.28891530  0.31099128  0.41469011     0.09800
S2083       S  0.28321327  0.25657689  0.33654717    -0.33500
S2084       S  0.29286491  0.33510689  0.44296784    -0.33500
H2085       H  0.27612936  0.35616984  0.43206333     0.27900
H2086       H  0.31004828  0.26224014  0.32753392     0.27800
H2087       H  0.24578725  0.29095487  0.36258923     0.18400
H2088       H  0.32960713  0.29430320  0.42181412     0.18400
C2089       C  0.26026424  0.41482087  0.30790186    -0.07400
C2090       C  0.25390000  0.40136382  0.28310707    -0.18500
C2091       C  0.27445082  0.39473219  0.26419703     0.09800
C2092       C  0.30207306  0.40309883  0.26936002    -0.07300
C2093       C  0.30825637  0.41771235  0.29374807    -0.18500
C2094       C  0.28764153  0.42332541  0.31322905     0.09800
S2095       S  0.26419496  0.37359767  0.23501992    -0.33500
S2096       S  0.29630041  0.44071707  0.34523361    -0.33500
H2097       H  0.32382402  0.44677883  0.33858547     0.27900
H2098       H  0.28871183  0.35791433  0.23443955     0.27800
H2099       H  0.23319104  0.39371270  0.27955780     0.18400
H2100       H  0.32917058  0.42469222  0.29748130     0.18400
C2101       C  0.89574443  0.97898359  0.28737701    -0.07400
C2102       C  0.89186724  0.99279102  0.26226519    -0.18500
C2103       C  0.89067379  0.02195564  0.26094667     0.09800
C2104       C  0.89312398  0.03810184  0.28566152    -0.07300
C2105       C  0.89994434  0.02419543  0.31015845    -0.18500
C2106       C  0.90175306  0.99523560  0.31121175     0.09800
S2107       S  0.88403665  0.03742522  0.22760030    -0.33500
S2108       S  0.91113467  0.98040713  0.34405813    -0.33500
H2109       H  0.92428859  0.95702830  0.33268079     0.27900
H2110       H  0.88609148  0.01315606  0.21156657     0.27800
H2111       H  0.88768196  0.98063437  0.24388639     0.18400
H2112       H  0.90303977  0.03591860  0.32905954     0.18400
C2113       C  0.82831236  0.91805005  0.39263874    -0.07400
C2114       C  0.79953165  0.91514946  0.39452143    -0.18500
C2115       C  0.78380957  0.93173197  0.41249349     0.09800
C2116       C  0.79720872  0.95139401  0.42971060    -0.07300
C2117       C  0.82599453  0.95420440  0.42787079    -0.18500
C2118       C  0.84155148  0.93813537  0.40943230     0.09800
S2119       S  0.74684799  0.92685522  0.41360087    -0.33500
S2120       S  0.87823382  0.94410408  0.40876707    -0.33500
H2121       H  0.88534187  0.91700875  0.40111505     0.27900
H2122       H  0.74528729  0.90482340  0.39455314     0.27800
H2123       H  0.78920272  0.90036543  0.38114470     0.18400
H2124       H  0.83653645  0.96903191  0.44106695     0.18400
C2125       C  0.89977261  0.77691212  0.18739956    -0.07400
C2126       C  0.89395613  0.80484142  0.18265056    -0.18500
C2127       C  0.89466678  0.82441334  0.20434869     0.09800
C2128       C  0.90081422  0.81606291  0.23197957    -0.07300
C2129       C  0.90882423  0.78854036  0.23617374    -0.18500
C2130       C  0.90811219  0.76894668  0.21443288     0.09800
S2131       S  0.88724337  0.85979080  0.19517182    -0.33500
S2132       S  0.91685217  0.73335792  0.22179906    -0.33500
H2133       H  0.92342998  0.73705435  0.24990231     0.27900
H2134       H  0.90595664  0.87133060  0.21436080     0.27800
H2135       H  0.88768250  0.81129607  0.16215462     0.18400
H2136       H  0.91411859  0.78202097  0.25686567     0.18400
C2137       C  0.71279851  0.97148937  0.12664995    -0.07400
C2138       C  0.69468586  0.98376022  0.10751506    -0.18500
C2139       C  0.69563739  0.01215228  0.10224571     0.09800
C2140       C  0.71522681  0.02877152  0.11622453    -0.07300
C2141       C  0.73363857  0.01635880  0.13493590    -0.18500
C2142       C  0.73260538  0.98808124  0.14029033     0.09800
S2143       S  0.67167012  0.02595203  0.07728104    -0.33500
S2144       S  0.75778508  0.97428681  0.16389570    -0.33500
H2145       H  0.76557460  0.95350274  0.14512859     0.27900
H2146       H  0.69030200  0.04572742  0.06739150     0.27800
H2147       H  0.67963133  0.97113827  0.09663245     0.18400
H2148       H  0.74841806  0.02891948  0.14624546     0.18400
C2149       C  0.78771174  0.82325045  0.11712215    -0.07400
C2150       C  0.80323617  0.81779907  0.09332188    -0.18500
C2151       C  0.82452093  0.79787184  0.09346969     0.09800
C2152       C  0.83021240  0.78274075  0.11785879    -0.07300
C2153       C  0.81663674  0.79045774  0.14216393    -0.18500
C2154       C  0.79560138  0.81036044  0.14209082     0.09800
S2155       S  0.84144049  0.79075069  0.06130590    -0.33500
S2156       S  0.77805066  0.81799789  0.17393332    -0.33500
H2157       H  0.79578010  0.80307615  0.19154854     0.27900
H2158       H  0.86810980  0.79239381  0.07285438     0.27800
H2159       H  0.79757442  0.82770329  0.07408205     0.18400
H2160       H  0.82138812  0.77950863  0.16106092     0.18400
C2161       C  0.77255024  0.89639518  0.18987788    -0.07400
C2162       C  0.79367791  0.91593095  0.18616681    -0.18500
C2163       C  0.81024214  0.92512627  0.20845619     0.09800
C2164       C  0.80568142  0.91497198  0.23535610    -0.07300
C2165       C  0.78459763  0.89596865  0.23915489    -0.18500
C2166       C  0.76875085  0.88597371  0.21706936     0.09800
S2167       S  0.83783923  0.94884533  0.20124619    -0.33500
S2168       S  0.74706777  0.85693278  0.22451796    -0.33500
H2169       H  0.74392844  0.86218173  0.25294482     0.27900
H2170       H  0.84070489  0.95880167  0.22845447     0.27800
H2171       H  0.79767455  0.92385283  0.16576500     0.18400
H2172       H  0.78280943  0.88621495  0.25912916     0.18400
C2173       C  0.63073292  0.52914723  0.20111247    -0.07400
C2174       C  0.60879112  0.51630442  0.21473656    -0.18500
C2175       C  0.60790921  0.48775092  0.21794625     0.09800
C2176       C  0.62893479  0.47120069  0.20641851    -0.07300
C2177       C  0.65063835  0.48378144  0.19230550    -0.18500
C2178       C  0.65186610  0.51254687  0.18947433     0.09800
S2179       S  0.58039087  0.47409715  0.23860336    -0.33500
S2180       S  0.68018255  0.52720413  0.17047853    -0.33500
H2181       H  0.69246079  0.50219156  0.16197170     0.27900
H2182       H  0.59730344  0.45504597  0.25270985     0.27800
H2183       H  0.59266576  0.52866196  0.22413651     0.18400
H2184       H  0.66656634  0.47091273  0.18327792     0.18400
C2185       C  0.64434165  0.73169688  0.17658140    -0.07400
C2186       C  0.66249755  0.73632344  0.15458346    -0.18500
C2187       C  0.67021374  0.76281101  0.14702570     0.09800
C2188       C  0.65918245  0.78560954  0.16145429    -0.07300
C2189       C  0.64078333  0.78131245  0.18329667    -0.18500
C2190       C  0.63376148  0.75443168  0.19144053     0.09800
S2191       S  0.69259417  0.76705488  0.11755080    -0.33500
S2192       S  0.61269978  0.75031094  0.22154137    -0.33500
H2193       H  0.62580703  0.72587028  0.23038367     0.27900
H2194       H  0.70060117  0.73917768  0.11482624     0.27800
H2195       H  0.67007452  0.71900479  0.14252626     0.18400
H2196       H  0.63268703  0.79890860  0.19463754     0.18400
C2197       C  0.73296664  0.63521637  0.16698548    -0.07400
C2198       C  0.75181980  0.61529326  0.15813306    -0.18500
C2199       C  0.77935495  0.62208651  0.15417934     0.09800
C2200       C  0.78802768  0.64988403  0.15799797    -0.07300
C2201       C  0.76909391  0.66965423  0.16719355    -0.18500
C2202       C  0.74187844  0.66286087  0.17211202     0.09800
S2203       S  0.80175215  0.59412452  0.14407489    -0.33500
S2204       S  0.71983190  0.69025011  0.18555343    -0.33500
H2205       H  0.73696030  0.71289615  0.17978817     0.27900
H2206       H  0.82114021  0.59981127  0.16513573     0.27800
H2207       H  0.74505795  0.59426108  0.15422284     0.18400
H2208       H  0.77557453  0.69082641  0.17036919     0.18400
C2209       C  0.71801981  0.84790923  0.34446550    -0.07400
C2210       C  0.72365297  0.87559329  0.33753271    -0.18500
C2211       C  0.74933405  0.88404658  0.32718779     0.09800
C2212       C  0.77111988  0.86462610  0.32377940    -0.07300
C2213       C  0.76510025  0.83661884  0.32934651    -0.18500
C2214       C  0.73911142  0.82805138  0.33945551     0.09800
S2215       S  0.75253098  0.92022006  0.31911608    -0.33500
S2216       S  0.73372801  0.79174724  0.34619179    -0.33500
H2217       H  0.75993358  0.78222426  0.33813894     0.27900
H2218       H  0.76819105  0.91585364  0.29523655     0.27800
H2219       H  0.70784501  0.89121558  0.34045023     0.18400
H2220       H  0.78126907  0.82135162  0.32680071     0.18400
C2221       C  0.66286860  0.85968657  0.28690387    -0.07400
C2222       C  0.67342341  0.83956715  0.26884714    -0.18500
C2223       C  0.68076999  0.84615650  0.24208657     0.09800
C2224       C  0.67953878  0.87408957  0.23373276    -0.07300
C2225       C  0.67282242  0.89474968  0.25303819    -0.18500
C2226       C  0.66405579  0.88789646  0.27956211     0.09800
S2227       S  0.69106388  0.81831114  0.21919701    -0.33500
S2228       S  0.65307397  0.91525754  0.30267661    -0.33500
H2229       H  0.65505370  0.93720393  0.28389178     0.27900
H2230       H  0.68642594  0.79608199  0.23714094     0.27800
H2231       H  0.67415140  0.81812545  0.27507844     0.18400
H2232       H  0.67258847  0.91618082  0.24667392     0.18400
C2233       C  0.67168753  0.88849426  0.43863569    -0.07400
C2234       C  0.66723840  0.91614081  0.43061349    -0.18500
C2235       C  0.67806831  0.93830781  0.44592169     0.09800
C2236       C  0.69442407  0.93286812  0.46952039    -0.07300
C2237       C  0.69651807  0.90550881  0.47898789    -0.18500
C2238       C  0.68523549  0.88332120  0.46395114     0.09800
S2239       S  0.67272918  0.97261078  0.43260428    -0.33500
S2240       S  0.68883413  0.84866742  0.47716455    -0.33500
H2241       H  0.69843238  0.85622360  0.50363766     0.27900
H2242       H  0.66510818  0.98385670  0.45829458     0.27800
H2243       H  0.65626367  0.92055807  0.41156468     0.18400
H2244       H  0.70868198  0.90134517  0.49736850     0.18400
C2245       C  0.59757729  0.68419720  0.26757426    -0.07400
C2246       C  0.62137305  0.68560010  0.28438066    -0.18500
C2247       C  0.62532705  0.70700860  0.30337810     0.09800
C2248       C  0.60550106  0.72813688  0.30566545    -0.07300
C2249       C  0.58100142  0.72628247  0.29002557    -0.18500
C2250       C  0.57658518  0.70430632  0.27137800     0.09800
S2251       S  0.65635642  0.70647294  0.32386152    -0.33500
S2252       S  0.54364352  0.70277495  0.25386290    -0.33500
H2253       H  0.54138565  0.67380768  0.25547101     0.27900
H2254       H  0.64271580  0.71300785  0.34852047     0.27800
H2255       H  0.63757419  0.67023066  0.28232047     0.18400
H2256       H  0.56517246  0.74197979  0.29247048     0.18400
C2257       C  0.78481609  0.53095440  0.38159540    -0.07400
C2258       C  0.80554902  0.51584586  0.39540262    -0.18500
C2259       C  0.80900949  0.48716920  0.39130992     0.09800
C2260       C  0.79153750  0.47252563  0.37272061    -0.07300
C2261       C  0.77074761  0.48746533  0.35892800    -0.18500
C2262       C  0.76701318  0.51623572  0.36328087     0.09800
S2263       S  0.83687056  0.47062634  0.40984405    -0.33500
S2264       S  0.73984307  0.53384031  0.34459643    -0.33500
H2265       H  0.73029102  0.51088454  0.32936558     0.27900
H2266       H  0.84347136  0.45195195  0.38857826     0.27800
H2267       H  0.81974152  0.52665469  0.40906265     0.18400
H2268       H  0.75690380  0.47633665  0.34520839     0.18400
C2269       C  0.84007787  0.64193162  0.27895693    -0.07400
C2270       C  0.82479289  0.66278138  0.26599243    -0.18500
C2271       C  0.82917702  0.66912784  0.23814267     0.09800
C2272       C  0.84923593  0.65406936  0.22302315    -0.07300
C2273       C  0.86295210  0.63191168  0.23567418    -0.18500
C2274       C  0.85868450  0.62579862  0.26345717     0.09800
S2275       S  0.80911908  0.69647405  0.22245167    -0.33500
S2276       S  0.87738805  0.59754483  0.27890739    -0.33500
H2277       H  0.88986133  0.58747691  0.25471192     0.27900
H2278       H  0.79074648  0.70060659  0.24443931     0.27800
H2279       H  0.81014111  0.67467193  0.27800312     0.18400
H2280       H  0.87819752  0.62027702  0.22417069     0.18400
C2281       C  0.82434884  0.72401130  0.35682601    -0.07400
C2282       C  0.84319489  0.72807917  0.33513671    -0.18500
C2283       C  0.85171229  0.75486464  0.32710617     0.09800
C2284       C  0.84035478  0.77846017  0.34025797    -0.07300
C2285       C  0.82055040  0.77407020  0.36107924    -0.18500
C2286       C  0.81296842  0.74750037  0.36980108     0.09800
S2287       S  0.87818126  0.75836302  0.30139982    -0.33500
S2288       S  0.78870438  0.74397607  0.39764175    -0.33500
H2289       H  0.78274415  0.77225278  0.40121678     0.27900
H2290       H  0.88341143  0.72997064  0.29754781     0.27800
H2291       H  0.85224007  0.71008333  0.32529846     0.18400
H2292       H  0.81138739  0.79172282  0.37137370     0.18400
C2293       C  0.73376433  0.60097756  0.30613503    -0.07400
C2294       C  0.74130476  0.59864504  0.27838591    -0.18500
C2295       C  0.72152292  0.60113303  0.25681865     0.09800
C2296       C  0.69339143  0.60713761  0.26267127    -0.07300
C2297       C  0.68570092  0.60748231  0.29062902    -0.18500
C2298       C  0.70530894  0.60431538  0.31217649     0.09800
S2299       S  0.73251979  0.59469971  0.22214126    -0.33500
S2300       S  0.69369444  0.60417089  0.34758002    -0.33500
H2301       H  0.66522637  0.60527938  0.34179833     0.27900
H2302       H  0.75878978  0.58397607  0.22860904     0.27800
H2303       H  0.76290421  0.59574696  0.27355961     0.18400
H2304       H  0.66419174  0.61068631  0.29563575     0.18400
C2305       C  0.73248643  0.70139322  0.40199401    -0.07400
C2306       C  0.72139807  0.71245437  0.42645345    -0.18500
C2307       C  0.69983630  0.73219570  0.42571233     0.09800
C2308       C  0.68928113  0.74141631  0.39998755    -0.07300
C2309       C  0.70158547  0.73161045  0.37577011    -0.18500
C2310       C  0.72292602  0.71192942  0.37638865     0.09800
S2311       S  0.68579826  0.74371457  0.45817383    -0.33500
S2312       S  0.73830201  0.70091241  0.34418186    -0.33500
H2313       H  0.72259149  0.71797626  0.32662627     0.27900
H2314       H  0.65856819  0.74737767  0.44860911     0.27800
H2315       H  0.72851699  0.70464113  0.44618414     0.18400
H2316       H  0.69443722  0.73965445  0.35618805     0.18400
C2317       C  0.27887682  0.96293344  0.09904309    -0.07400
C2318       C  0.25351123  0.97623656  0.10413239    -0.18500
C2319       C  0.25172031  0.00512858  0.10671897     0.09800
C2320       C  0.27606256  0.02105581  0.10474777    -0.07300
C2321       C  0.30052838  0.00788618  0.09614891    -0.18500
C2322       C  0.30201675  0.97921326  0.09275182     0.09800
S2323       S  0.21874809  0.02059495  0.11488413    -0.33500
S2324       S  0.33411423  0.96461735  0.08089252    -0.33500
H2325       H  0.32176580  0.94209285  0.06703596     0.27900
H2326       H  0.20257589  0.99692535  0.11000362     0.27800
H2327       H  0.23542507  0.96390025  0.10825241     0.18400
H2328       H  0.31905973  0.01993419  0.09304794     0.18400
C2329       C  0.11498393  0.96560371  0.29089757    -0.07400
C2330       C  0.14068230  0.97786164  0.28629934    -0.18500
C2331       C  0.14480836  0.00636966  0.28981049     0.09800
C2332       C  0.12242479  0.02329320  0.29815552    -0.07300
C2333       C  0.09673943  0.01066950  0.30334174    -0.18500
C2334       C  0.09282721  0.98213742  0.29978600     0.09800
S2335       S  0.17869006  0.02031757  0.28303195    -0.33500
S2336       S  0.05924854  0.96803660  0.30694197    -0.33500
H2337       H  0.06075932  0.94614692  0.28779292     0.27900
H2338       H  0.19296341  0.99495935  0.28218928     0.27800
H2339       H  0.15782250  0.96480550  0.28049327     0.18400
H2340       H  0.07935446  0.02315848  0.30989484     0.18400
C2341       C  0.96801277  0.88976903  0.29629523    -0.07400
C2342       C  0.98335336  0.88432111  0.32055008    -0.18500
C2343       C  0.01251190  0.88523775  0.32129181     0.09800
C2344       C  0.02767318  0.89011884  0.29677893    -0.07300
C2345       C  0.01230822  0.89752759  0.27311385    -0.18500
C2346       C  0.98312305  0.89806562  0.27266335     0.09800
S2347       S  0.02870630  0.88002652  0.35439183    -0.33500
S2348       S  0.96601368  0.90924000  0.24130721    -0.33500
H2349       H  0.98955164  0.91888455  0.22761150     0.27900
H2350       H  0.04723861  0.90213653  0.35134241     0.27800
H2351       H  0.97256301  0.87903635  0.33928112     0.18400
H2352       H  0.02327445  0.90227675  0.25438058     0.18400
C2353       C  0.19049826  0.89954601  0.23053950    -0.07400
C2354       C  0.20177928  0.87429658  0.22174449    -0.18500
C2355       C  0.22203754  0.87302646  0.20142975     0.09800
C2356       C  0.23110218  0.89759699  0.18866970    -0.07300
C2357       C  0.22115710  0.92314256  0.19858641    -0.18500
C2358       C  0.20090780  0.92435172  0.21943577     0.09800
S2359       S  0.23513685  0.83911640  0.19263414    -0.33500
S2360       S  0.18679311  0.95729971  0.22978572    -0.33500
H2361       H  0.20597250  0.97372135  0.21576942     0.27900
H2362       H  0.26128236  0.84783938  0.18416399     0.27800
H2363       H  0.19437073  0.85517264  0.23057337     0.18400
H2364       H  0.22809519  0.94198981  0.18892690     0.18400
C2365       C  0.03188265  0.71104499  0.12368909    -0.07400
C2366       C  0.02054681  0.72602373  0.14580835    -0.18500
C2367       C  0.99229298  0.72495571  0.15162829     0.09800
C2368       C  0.97466082  0.70840175  0.13500562    -0.07300
C2369       C  0.98618926  0.69386916  0.11250389    -0.18500
C2370       C  0.01435449  0.69510018  0.10666875     0.09800
S2371       S  0.98041137  0.74509672  0.18055729    -0.33500
S2372       S  0.02684108  0.67556736  0.07741826    -0.33500
H2373       H  0.05006593  0.69219708  0.07259391     0.27900
H2374       H  0.95930065  0.75813296  0.16533742     0.27800
H2375       H  0.03400709  0.73776018  0.15945734     0.18400
H2376       H  0.97316738  0.68123914  0.09924896     0.18400
C2377       C  0.20108364  0.74976635  0.10858355    -0.07400
C2378       C  0.21108786  0.75365736  0.08162650    -0.18500
C2379       C  0.23015791  0.77464150  0.07576052     0.09800
C2380       C  0.23991822  0.79174898  0.09731666    -0.07300
C2381       C  0.23236333  0.78565816  0.12453109    -0.18500
C2382       C  0.21336733  0.76498929  0.13044448     0.09800
S2383       S  0.23929238  0.78030633  0.04042358    -0.33500
S2384       S  0.20567356  0.75964468  0.16636784    -0.33500
H2385       H  0.20127394  0.73109340  0.16348576     0.27900
H2386       H  0.26769995  0.78000443  0.04641688     0.27800
H2387       H  0.20301101  0.74125225  0.06475625     0.18400
H2388       H  0.24063332  0.79796504  0.14144040     0.18400
C2389       C  0.08690092  0.75556190  0.20084619    -0.07400
C2390       C  0.08711117  0.78221767  0.18962220    -0.18500
C2391       C  0.08325662  0.80572308  0.20605395     0.09800
C2392       C  0.08070652  0.80301782  0.23502359    -0.07300
C2393       C  0.07740825  0.77633516  0.24588841    -0.18500
C2394       C  0.07997646  0.75261930  0.22898385     0.09800
S2395       S  0.08250216  0.83865791  0.18870786    -0.33500
S2396       S  0.07696749  0.71944080  0.24504463    -0.33500
H2397       H  0.06034446  0.70814857  0.22394812     0.27900
H2398       H  0.06522031  0.85166240  0.20810050     0.27800
H2399       H  0.09096548  0.78481547  0.16777947     0.18400
H2400       H  0.07470985  0.77381455  0.26790400     0.18400
C2401       C  0.46828448  0.80183627  0.35516298    -0.07400
C2402       C  0.48256757  0.80860339  0.37975196    -0.18500
C2403       C  0.51128460  0.80598586  0.38215252     0.09800
C2404       C  0.52672161  0.79613183  0.35948958    -0.07300
C2405       C  0.51246247  0.78878510  0.33507663    -0.18500
C2406       C  0.48363806  0.79136406  0.33261575     0.09800
S2407       S  0.52680976  0.81647113  0.41447458    -0.33500
S2408       S  0.46727001  0.78068417  0.30061409    -0.33500
H2409       H  0.48973242  0.76557007  0.29005614     0.27900
H2410       H  0.54780407  0.83203474  0.40211335     0.27800
H2411       H  0.47130226  0.81634864  0.39742532     0.18400
H2412       H  0.52404350  0.78099544  0.31765010     0.18400
C2413       C  0.34002223  0.84929571  0.20894337    -0.07400
C2414       C  0.32002618  0.84362992  0.22878596    -0.18500
C2415       C  0.32771324  0.83497001  0.25516197     0.09800
C2416       C  0.35601094  0.83323885  0.26226849    -0.07300
C2417       C  0.37583017  0.83731050  0.24191911    -0.18500
C2418       C  0.36841016  0.84514634  0.21538648     0.09800
S2419       S  0.30044401  0.82540716  0.27801978    -0.33500
S2420       S  0.39611356  0.85103747  0.19108656    -0.33500
H2421       H  0.41864809  0.84661527  0.20898925     0.27900
H2422       H  0.31516456  0.80347726  0.29020537     0.27800
H2423       H  0.29830958  0.84565567  0.22365505     0.18400
H2424       H  0.39750991  0.83545961  0.24714414     0.18400
C2425       C  0.27057549  0.83981186  0.34412325    -0.07400
C2426       C  0.25477507  0.81980912  0.32975109    -0.18500
C2427       C  0.22642032  0.82354939  0.32452608     0.09800
C2428       C  0.21281526  0.84694288  0.33553626    -0.07300
C2429       C  0.22816636  0.86618329  0.35104378    -0.18500
C2430       C  0.25671850  0.86303558  0.35541929     0.09800
S2431       S  0.20926778  0.79804091  0.30319969    -0.33500
S2432       S  0.27467985  0.88844605  0.37630633    -0.33500
H2433       H  0.25148586  0.90426080  0.38387100     0.27900
H2434       H  0.18800931  0.81513170  0.29320167     0.27800
H2435       H  0.26479711  0.80145584  0.32164799     0.18400
H2436       H  0.21774214  0.88435667  0.35904902     0.18400
C2437       C  0.38391407  0.52966940  0.22753297    -0.07400
C2438       C  0.40615090  0.51493432  0.21616446    -0.18500
C2439       C  0.40879262  0.48624355  0.21985690     0.09800
C2440       C  0.38870328  0.47187685  0.23509684    -0.07300
C2441       C  0.36760201  0.48685492  0.24790874    -0.18500
C2442       C  0.36522207  0.51544888  0.24466841     0.09800
S2443       S  0.43661442  0.46886986  0.20239148    -0.33500
S2444       S  0.33739148  0.53248763  0.26244308    -0.33500
H2445       H  0.35382414  0.55494455  0.27083588     0.27900
H2446       H  0.43842627  0.44640757  0.22056584     0.27800
H2447       H  0.42055153  0.52540552  0.20290608     0.18400
H2448       H  0.35198834  0.47595498  0.25946179     0.18400
C2449       C  0.46830641  0.61852735  0.19367829    -0.07400
C2450       C  0.48329123  0.63891258  0.18020217    -0.18500
C2451       C  0.51197268  0.63957318  0.18218087     0.09800
C2452       C  0.52602296  0.61845120  0.19702244    -0.07300
C2453       C  0.51103996  0.59750919  0.20964549    -0.18500
C2454       C  0.48232415  0.59732256  0.20805379     0.09800
S2455       S  0.52974834  0.66930400  0.16839135    -0.33500
S2456       S  0.46460167  0.56921718  0.22411069    -0.33500
H2457       H  0.44616400  0.56650699  0.20174499     0.27900
H2458       H  0.50675782  0.68236042  0.15640186     0.27800
H2459       H  0.47234579  0.65554517  0.16993857     0.18400
H2460       H  0.52175049  0.58114065  0.22059934     0.18400
C2461       C  0.34544674  0.72453434  0.16642304    -0.07400
C2462       C  0.32602910  0.72827579  0.14525406    -0.18500
C2463       C  0.32028715  0.75441158  0.13460641     0.09800
C2464       C  0.33311756  0.77820619  0.14627956    -0.07300
C2465       C  0.35085877  0.77473625  0.16903443    -0.18500
C2466       C  0.35733129  0.74820949  0.17915971     0.09800
S2467       S  0.29904464  0.75493459  0.10393099    -0.33500
S2468       S  0.38280771  0.74515167  0.20632679    -0.33500
H2469       H  0.38300883  0.77324122  0.21415368     0.27900
H2470       H  0.31733922  0.77159650  0.08906297     0.27800
H2471       H  0.31682886  0.71034227  0.13531429     0.18400
H2472       H  0.36049371  0.79279590  0.17820022     0.18400
C2473       C  0.28615978  0.65100679  0.14598380    -0.07400
C2474       C  0.27409136  0.66763873  0.16630384    -0.18500
C2475       C  0.24558312  0.67066560  0.16724188     0.09800
C2476       C  0.22943977  0.65678965  0.14740502    -0.07300
C2477       C  0.24172146  0.64190759  0.12587629    -0.18500
C2478       C  0.27018013  0.63896927  0.12488810     0.09800
S2479       S  0.23012327  0.69046456  0.19466664    -0.33500
S2480       S  0.28472883  0.61767496  0.09794307    -0.33500
H2481       H  0.31068827  0.63053390  0.09780812     0.27900
H2482       H  0.25469832  0.69718539  0.20880399     0.27800
H2483       H  0.28690861  0.67642181  0.18254194     0.18400
H2484       H  0.22901585  0.63191256  0.11022657     0.18400
C2485       C  0.39798450  0.69586979  0.26284307    -0.07400
C2486       C  0.37257124  0.70951811  0.26556331    -0.18500
C2487       C  0.36740844  0.72808282  0.28722931     0.09800
C2488       C  0.38833393  0.73400626  0.30707134    -0.07300
C2489       C  0.41364376  0.71970921  0.30482422    -0.18500
C2490       C  0.41858111  0.70060890  0.28320758     0.09800
S2491       S  0.33293830  0.74217078  0.28894155    -0.33500
S2492       S  0.45094151  0.68203497  0.28380480    -0.33500
H2493       H  0.45080674  0.67327456  0.25614397     0.27900
H2494       H  0.33146174  0.74140513  0.31789561     0.27800
H2495       H  0.35603769  0.70485272  0.25106307     0.18400
H2496       H  0.42992040  0.72372835  0.31976583     0.18400
C2497       C  0.20933614  0.53293859  0.38717241    -0.07400
C2498       C  0.18566350  0.51986807  0.39715845    -0.18500
C2499       C  0.18479416  0.49095500  0.40049330     0.09800
C2500       C  0.20803964  0.47455220  0.39339651    -0.07300
C2501       C  0.23203745  0.48780374  0.38470252    -0.18500
C2502       C  0.23299362  0.51648708  0.38120040     0.09800
S2503       S  0.15426571  0.47552057  0.41479473    -0.33500
S2504       S  0.26399735  0.53086081  0.36638779    -0.33500
H2505       H  0.28111444  0.50758171  0.37003317     0.27900
H2506       H  0.13721270  0.49904938  0.41288933     0.27800
H2507       H  0.16793105  0.53238721  0.40258208     0.18400
H2508       H  0.24960852  0.47538392  0.37860005     0.18400
C2509       C  0.14716511  0.77751440  0.33405469    -0.07400
C2510       C  0.15699755  0.77391099  0.36114268    -0.18500
C2511       C  0.16344110  0.74766032  0.37153353     0.09800
C2512       C  0.15979393  0.72393943  0.35471951    -0.07300
C2513       C  0.15042242  0.72731816  0.32747096    -0.18500
C2514       C  0.14469937  0.75377882  0.31679156     0.09800
S2515       S  0.17563642  0.74473968  0.40676685    -0.33500
S2516       S  0.13583968  0.75573709  0.28071709    -0.33500
H2517       H  0.14959197  0.78084950  0.27619462     0.27900
H2518       H  0.16846854  0.77167514  0.41528190     0.27800
H2519       H  0.15904218  0.79175133  0.37460258     0.18400
H2520       H  0.14846843  0.70937925  0.31413843     0.18400
C2521       C  0.16249867  0.65770266  0.28872816    -0.07400
C2522       C  0.13494412  0.65324914  0.28056379    -0.18500
C2523       C  0.12556313  0.65825637  0.25364789     0.09800
C2524       C  0.14408684  0.66891481  0.23381880    -0.07300
C2525       C  0.17133808  0.67479925  0.24253639    -0.18500
C2526       C  0.18076718  0.66920628  0.26947813     0.09800
S2527       S  0.09042623  0.64837660  0.24533383    -0.33500
S2528       S  0.21612050  0.67728134  0.27791607    -0.33500
H2529       H  0.21040762  0.68658299  0.30485458     0.27900
H2530       H  0.08061660  0.64738446  0.27256177     0.27800
H2531       H  0.12078160  0.64413828  0.29504790     0.18400
H2532       H  0.18561519  0.68353034  0.22813216     0.18400
C2533       C  0.27117274  0.60592192  0.31474089    -0.07400
C2534       C  0.29820492  0.61558318  0.31931179    -0.18500
C2535       C  0.31773628  0.61651418  0.29813664     0.09800
C2536       C  0.31033227  0.60777383  0.27125116    -0.07300
C2537       C  0.28362143  0.59737164  0.26660071    -0.18500
C2538       C  0.26409345  0.59598300  0.28789705     0.09800
S2539       S  0.35144465  0.63068047  0.30565302    -0.33500
S2540       S  0.23037927  0.58197024  0.27972101    -0.33500
H2541       H  0.23694922  0.57071146  0.25374133     0.27900
H2542       H  0.34974433  0.62903641  0.33455586     0.27800
H2543       H  0.30409011  0.62294594  0.33962365     0.18400
H2544       H  0.27805584  0.59021345  0.24609864     0.18400
C2545       C  0.28719200  0.68536623  0.40506313    -0.07400
C2546       C  0.30678440  0.67977377  0.38463340    -0.18500
C2547       C  0.32838191  0.69816504  0.37990644     0.09800
C2548       C  0.33016952  0.72249192  0.39585923    -0.07300
C2549       C  0.31197935  0.72680101  0.41782103    -0.18500
C2550       C  0.29055493  0.70837554  0.42270943     0.09800
S2551       S  0.35163484  0.69073329  0.35204950    -0.33500
S2552       S  0.26721455  0.71624513  0.45051869    -0.33500
H2553       H  0.25919688  0.68877142  0.45528860     0.27900
H2554       H  0.37391695  0.70583880  0.36308103     0.27800
H2555       H  0.30425826  0.66195370  0.37122512     0.18400
H2556       H  0.31326171  0.74562201  0.43001286     0.18400
C2557       C  0.28870250  0.87521236  0.96251510    -0.07400
C2558       C  0.29643602  0.85158487  0.97735555    -0.18500
C2559       C  0.29650578  0.85109479  0.00626836     0.09800
C2560       C  0.28797641  0.87460406  0.02151554    -0.07300
C2561       C  0.27947781  0.89819436  0.00700027    -0.18500
C2562       C  0.27998256  0.89897594  0.97779490     0.09800
S2563       S  0.30632324  0.81946191  0.02314351    -0.33500
S2564       S  0.26856067  0.93024648  0.96083095    -0.33500
H2565       H  0.26625692  0.94684482  0.98465486     0.27900
H2566       H  0.31597865  0.80511565  0.99979011     0.27800
H2567       H  0.30276865  0.83322015  0.96617633     0.18400
H2568       H  0.27256692  0.91605958  0.01864694     0.18400
C2569       C  0.13027458  0.70581769  0.98161961    -0.07400
C2570       C  0.14192501  0.72648459  0.99848866    -0.18500
C2571       C  0.13642222  0.72812533  0.02698951     0.09800
C2572       C  0.12090422  0.70713168  0.04014040    -0.07300
C2573       C  0.10887965  0.68669368  0.02311288    -0.18500
C2574       C  0.11228116  0.68654761  0.99416447     0.09800
S2575       S  0.14976418  0.75778409  0.04516530    -0.33500
S2576       S  0.09216684  0.66166089  0.97480680    -0.33500
H2577       H  0.10594557  0.66337479  0.94955050     0.27900
H2578       H  0.12383612  0.76537333  0.05571314     0.27800
H2579       H  0.15460608  0.74224356  0.98914944     0.18400
H2580       H  0.09646072  0.67072962  0.03244611     0.18400
C2581       C  0.20318136  0.76572507  0.89208139    -0.07400
C2582       C  0.19290371  0.79278739  0.88880398    -0.18500
C2583       C  0.21015086  0.81511987  0.88169112     0.09800
C2584       C  0.23894844  0.81094530  0.87790886    -0.07300
C2585       C  0.24918046  0.78388398  0.88121161    -0.18500
C2586       C  0.23201164  0.76161170  0.88840319     0.09800
S2587       S  0.19368189  0.84826692  0.87716968    -0.33500
S2588       S  0.24885825  0.72886557  0.89424944    -0.33500
H2589       H  0.23319215  0.72230742  0.91762481     0.27900
H2590       H  0.21073309  0.85679544  0.85557949     0.27800
H2591       H  0.17097890  0.79653839  0.89109314     0.18400
H2592       H  0.27115741  0.78019177  0.87959765     0.18400
C2593       C  0.12123791  0.80967590  0.78350445    -0.07400
C2594       C  0.09686020  0.80741695  0.79889942    -0.18500
C2595       C  0.09299527  0.78563763  0.81761489     0.09800
C2596       C  0.11452994  0.76655329  0.82217893    -0.07300
C2597       C  0.13939991  0.76962160  0.80798668    -0.18500
C2598       C  0.14290937  0.79056451  0.78859006     0.09800
S2599       S  0.06089903  0.78267008  0.83600376    -0.33500
S2600       S  0.17578150  0.79174478  0.77144680    -0.33500
H2601       H  0.17545473  0.82040225  0.76737871     0.27900
H2602       H  0.04639615  0.80291742  0.82096091     0.27800
H2603       H  0.08049744  0.82228542  0.79570268     0.18400
H2604       H  0.15632025  0.75543697  0.81203267     0.18400
C2605       C  0.19533244  0.90697134  0.76050794    -0.07400
C2606       C  0.20482846  0.88252885  0.77271125    -0.18500
C2607       C  0.22704927  0.88225000  0.79122863     0.09800
C2608       C  0.24002691  0.90734364  0.79887073    -0.07300
C2609       C  0.23148165  0.93193625  0.78580175    -0.18500
C2610       C  0.20920706  0.93202316  0.76671499     0.09800
S2611       S  0.23974804  0.84925084  0.80355537    -0.33500
S2612       S  0.19877589  0.96472298  0.75220133    -0.33500
H2613       H  0.17083346  0.95800915  0.74812141     0.27900
H2614       H  0.22221876  0.83224759  0.78773274     0.27800
H2615       H  0.19486022  0.86331492  0.76729736     0.18400
H2616       H  0.24141547  0.95126248  0.79127912     0.18400
C2617       C  0.21585678  0.61107809  0.53769561    -0.07400
C2618       C  0.19158716  0.61811199  0.52309766    -0.18500
C2619       C  0.19156074  0.62267151  0.49462576     0.09800
C2620       C  0.21618472  0.61986973  0.47972389    -0.07300
C2621       C  0.24023003  0.61123076  0.49374180    -0.18500
C2622       C  0.24034978  0.60682816  0.52247899     0.09800
S2623       S  0.15981208  0.63204421  0.47757918    -0.33500
S2624       S  0.27225558  0.59592322  0.53835684    -0.33500
H2625       H  0.25964039  0.57863172  0.55777091     0.27900
H2626       H  0.14257197  0.63138069  0.50077638     0.27800
H2627       H  0.17255537  0.62130905  0.53421498     0.18400
H2628       H  0.25919312  0.60850747  0.48232958     0.18400
C2629       C  0.17069441  0.67928300  0.72503126    -0.07400
C2630       C  0.14418140  0.68971573  0.73092419    -0.18500
C2631       C  0.13595482  0.69626762  0.75813319     0.09800
C2632       C  0.15469677  0.69279870  0.78046549    -0.07300
C2633       C  0.18216460  0.68535930  0.77405268    -0.18500
C2634       C  0.19027438  0.67870318  0.74682697     0.09800
S2635       S  0.10118143  0.70847463  0.76395607    -0.33500
S2636       S  0.22585643  0.66944455  0.74112520    -0.33500
H2637       H  0.22641980  0.67815565  0.71348232     0.27900
H2638       H  0.09083188  0.70289315  0.73729969     0.27800
H2639       H  0.12911315  0.69087889  0.71435397     0.18400
H2640       H  0.19723513  0.68333431  0.79055366     0.18400
C2641       C  0.15953467  0.72565913  0.63348089    -0.07400
C2642       C  0.17555372  0.73726141  0.65463270    -0.18500
C2643       C  0.17313215  0.76521173  0.66155335     0.09800
C2644       C  0.15371038  0.78192374  0.64722198    -0.07300
C2645       C  0.13942574  0.77088265  0.62454298    -0.18500
C2646       C  0.14211114  0.74285567  0.61755172     0.09800
S2647       S  0.19442494  0.77866862  0.68934909    -0.33500
S2648       S  0.12115574  0.72898587  0.59015094    -0.33500
H2649       H  0.10821199  0.75381062  0.58220536     0.27900
H2650       H  0.21226740  0.75577294  0.69167054     0.27800
H2651       H  0.18953201  0.72411558  0.66623354     0.18400
H2652       H  0.12457522  0.78369109  0.61368772     0.18400
C2653       C  0.35807104  0.71236430  0.85333812    -0.07400
C2654       C  0.33475056  0.72371677  0.84031038    -0.18500
C2655       C  0.32616385  0.75051363  0.84640316     0.09800
C2656       C  0.34086667  0.76588404  0.86636583    -0.07300
C2657       C  0.36264191  0.75394998  0.88109234    -0.18500
C2658       C  0.37143390  0.72720771  0.87474093     0.09800
S2659       S  0.29796384  0.76575815  0.82700209    -0.33500
S2660       S  0.40198950  0.71496785  0.89178574    -0.33500
H2661       H  0.38933986  0.69051914  0.90076874     0.27900
H2662       H  0.29005984  0.74163155  0.81264912     0.27800
H2663       H  0.32431263  0.71213794  0.82413107     0.18400
H2664       H  0.37408996  0.76620298  0.89609024     0.18400
C2665       C  0.29047591  0.65002743  0.83000524    -0.07400
C2666       C  0.26935933  0.64192720  0.81171708    -0.18500
C2667       C  0.24220510  0.63975049  0.82029838     0.09800
C2668       C  0.23491379  0.64924883  0.84694430    -0.07300
C2669       C  0.25573837  0.65894081  0.86480586    -0.18500
C2670       C  0.28344010  0.65906166  0.85694879     0.09800
S2671       S  0.21877901  0.62254287  0.79675894    -0.33500
S2672       S  0.30897479  0.67056123  0.88191799    -0.33500
H2673       H  0.29148134  0.67248434  0.90487392     0.27900
H2674       H  0.20908762  0.60431295  0.81700702     0.27800
H2675       H  0.27427715  0.63474276  0.79111048     0.18400
H2676       H  0.25031129  0.66636416  0.88515747     0.18400
C2677       C  0.31059494  0.59215487  0.73537433    -0.07400
C2678       C  0.31392334  0.59990732  0.70772519    -0.18500
C2679       C  0.29129764  0.60384900  0.68979598     0.09800
C2680       C  0.26393342  0.60129925  0.69964927    -0.07300
C2681       C  0.26035167  0.59211668  0.72687119    -0.18500
C2682       C  0.28317914  0.58695958  0.74453208     0.09800
S2683       S  0.29803408  0.61141958  0.65396500    -0.33500
S2684       S  0.27561098  0.57440466  0.77855521    -0.33500
H2685       H  0.29388999  0.55182545  0.77645533     0.27900
H2686       H  0.32648329  0.60553153  0.65453294     0.27800
H2687       H  0.33455362  0.60332286  0.70007658     0.18400
H2688       H  0.23963905  0.58935932  0.73462118     0.18400
C2689       C  0.37149792  0.79792667  0.46459128    -0.07400
C2690       C  0.35960710  0.77515711  0.47746020    -0.18500
C2691       C  0.36163106  0.77137254  0.50593504     0.09800
C2692       C  0.37546423  0.79145207  0.52247961    -0.07300
C2693       C  0.38780000  0.81415197  0.50946747    -0.18500
C2694       C  0.38622168  0.81745855  0.48072939     0.09800
S2695       S  0.34491613  0.74134493  0.52029836    -0.33500
S2696       S  0.40257036  0.84740211  0.46619934    -0.33500
H2697       H  0.38310509  0.85118218  0.44496169     0.27900
H2698       H  0.33960571  0.72725178  0.49532895     0.27800
H2699       H  0.34877129  0.76001241  0.46494452     0.18400
H2700       H  0.39836016  0.82966418  0.52181795     0.18400
C2701       C  0.21859264  0.83971796  0.66755348    -0.07400
C2702       C  0.22187286  0.83168539  0.63981165    -0.18500
C2703       C  0.24763964  0.82482508  0.62902265     0.09800
C2704       C  0.27113316  0.82553315  0.64657734    -0.07300
C2705       C  0.26730233  0.83035196  0.67499533    -0.18500
C2706       C  0.24130561  0.83726128  0.68571785     0.09800
S2707       S  0.24966982  0.81646089  0.59259322    -0.33500
S2708       S  0.23756133  0.84249155  0.72237375    -0.33500
H2709       H  0.26310875  0.83092489  0.73015191     0.27900
H2710       H  0.22259271  0.82405207  0.58511728     0.27800
H2711       H  0.20421196  0.83189192  0.62600908     0.18400
H2712       H  0.28485047  0.82929668  0.68881579     0.18400
C2713       C  0.34315436  0.82825008  0.71735182    -0.07400
C2714       C  0.32635985  0.85198894  0.71929034    -0.18500
C2715       C  0.31435581  0.86051530  0.74403753     0.09800
C2716       C  0.31879119  0.84520409  0.76842012    -0.07300
C2717       C  0.33534188  0.82110188  0.76666347    -0.18500
C2718       C  0.34791058  0.81274529  0.74156128     0.09800
S2719       S  0.29400219  0.89172762  0.74303979    -0.33500
S2720       S  0.37062755  0.78314872  0.74101763    -0.33500
H2721       H  0.36546278  0.77441381  0.76812589     0.27900
H2722       H  0.27605918  0.88288292  0.76359792     0.27800
H2723       H  0.32271762  0.86455243  0.70115861     0.18400
H2724       H  0.33998103  0.80986685  0.78539914     0.18400
C2725       C  0.28680267  0.74656783  0.58687251    -0.07400
C2726       C  0.27926902  0.73059733  0.56373333    -0.18500
C2727       C  0.26157285  0.70777887  0.56650386     0.09800
C2728       C  0.25032330  0.70180555  0.59265586    -0.07300
C2729       C  0.25520329  0.71977672  0.61471503    -0.18500
C2730       C  0.27364521  0.74156715  0.61237022     0.09800
S2731       S  0.25690437  0.68535754  0.53699420    -0.33500
S2732       S  0.28332191  0.75963726  0.64358526    -0.33500
H2733       H  0.25995109  0.75258526  0.65906006     0.27900
H2734       H  0.25916370  0.66064744  0.55197671     0.27800
H2735       H  0.28956720  0.73382690  0.54428979     0.18400
H2736       H  0.24623247  0.71528747  0.63460693     0.18400
C2737       C  0.38695391  0.72677536  0.68117803    -0.07400
C2738       C  0.40911114  0.70817506  0.68109673    -0.18500
C2739       C  0.40828559  0.68433701  0.69709297     0.09800
C2740       C  0.38603277  0.68061115  0.71536920    -0.07300
C2741       C  0.36325726  0.69840090  0.71400810    -0.18500
C2742       C  0.36318211  0.72105926  0.69671688     0.09800
S2743       S  0.43529414  0.65921973  0.69217391    -0.33500
S2744       S  0.33180258  0.74131988  0.69534715    -0.33500
H2745       H  0.34323900  0.76565620  0.68495900     0.27900
H2746       H  0.41701969  0.63670968  0.69045440     0.27800
H2747       H  0.42623373  0.71133336  0.66722985     0.18400
H2748       H  0.34559745  0.69502865  0.72717277     0.18400
C2749       C  0.70337192  0.85813393  0.96859834    -0.07400
C2750       C  0.69453474  0.88172479  0.98336462    -0.18500
C2751       C  0.69563629  0.88330171  0.01250060     0.09800
C2752       C  0.70661481  0.86093649  0.02806439    -0.07300
C2753       C  0.71500792  0.83714643  0.01341447    -0.18500
C2754       C  0.71361573  0.83543930  0.98423669     0.09800
S2755       S  0.68148904  0.91367482  0.02925735    -0.33500
S2756       S  0.72673649  0.80457081  0.96764919    -0.33500
H2757       H  0.72881041  0.78819021  0.99146569     0.27900
H2758       H  0.67901767  0.93016576  0.00554848     0.27800
H2759       H  0.68623403  0.89906202  0.97195004     0.18400
H2760       H  0.72360240  0.81999211  0.02490324     0.18400
C2761       C  0.87765415  0.70955930  0.97761619    -0.07400
C2762       C  0.89098458  0.68833504  0.99221595    -0.18500
C2763       C  0.88776161  0.68557313  0.02075267     0.09800
C2764       C  0.87035129  0.70421916  0.03502187    -0.07300
C2765       C  0.85577029  0.72439631  0.02014631    -0.18500
C2766       C  0.85941945  0.72751049  0.99166537     0.09800
S2767       S  0.90522931  0.65758261  0.03838421    -0.33500
S2768       S  0.83979069  0.75366268  0.97352146    -0.33500
H2769       H  0.82716817  0.76563980  0.99675776     0.27900
H2770       H  0.92024052  0.64759573  0.01566271     0.27800
H2771       H  0.90410689  0.67396993  0.98114754     0.18400
H2772       H  0.84202627  0.73823051  0.03104417     0.18400
C2773       C  0.97702048  0.70885541  0.89784420    -0.07400
C2774       C  0.99146614  0.68442454  0.90377879    -0.18500
C2775       C  0.02056999  0.68380487  0.90511799     0.09800
C2776       C  0.03598699  0.70813208  0.89940677    -0.07300
C2777       C  0.02132976  0.73290524  0.89515721    -0.18500
C2778       C  0.99226714  0.73353015  0.89450019     0.09800
S2779       S  0.03750440  0.65162548  0.91410421    -0.33500
S2780       S  0.97583823  0.76612416  0.88700472    -0.33500
H2781       H  0.95274269  0.76155953  0.90369304     0.27900
H2782       H  0.01376363  0.63497187  0.91444694     0.27800
H2783       H  0.97983658  0.66556595  0.90650362     0.18400
H2784       H  0.03253564  0.75173871  0.89089929     0.18400
C2785       C  0.81658124  0.77109461  0.89484979    -0.07400
C2786       C  0.78902945  0.76250746  0.89391906    -0.18500
C2787       C  0.76713850  0.78140899  0.89156434     0.09800
C2788       C  0.77233206  0.81032255  0.88985889    -0.07300
C2789       C  0.79993289  0.81914474  0.89133522    -0.18500
C2790       C  0.82195611  0.80001732  0.89389035     0.09800
S2791       S  0.73295897  0.76670417  0.89122215    -0.33500
S2792       S  0.85626218  0.81404307  0.89674297    -0.33500
H2793       H  0.86588045  0.79421092  0.91566502     0.27900
H2794       H  0.72122575  0.78742039  0.90781888     0.27800
H2795       H  0.78439649  0.74060687  0.89473689     0.18400
H2796       H  0.80442752  0.84103933  0.89015803     0.18400
C2797       C  0.97361433  0.85707928  0.71112204    -0.07400
C2798       C  0.98749736  0.83641981  0.72610179    -0.18500
C2799       C  0.01616105  0.83636893  0.72913979     0.09800
C2800       C  0.03200983  0.85759344  0.71711525    -0.07300
C2801       C  0.01827658  0.87791762  0.70147410    -0.18500
C2802       C  0.98948298  0.87755575  0.69785272     0.09800
S2803       S  0.03084648  0.80965060  0.75037409    -0.33500
S2804       S  0.97459477  0.90281208  0.67490686    -0.33500
H2805       H  0.95560671  0.88427282  0.66285629     0.27900
H2806       H  0.04616943  0.82894903  0.76576347     0.27800
H2807       H  0.97586192  0.82047132  0.73642276     0.18400
H2808       H  0.03014968  0.89375689  0.69126358     0.18400
C2809       C  0.83203796  0.91088093  0.61802195    -0.07400
C2810       C  0.84105554  0.90926593  0.59057662    -0.18500
C2811       C  0.83227971  0.92853996  0.57079392     0.09800
C2812       C  0.81315746  0.94945709  0.57831303    -0.07300
C2813       C  0.80589367  0.95202901  0.60621707    -0.18500
C2814       C  0.81483971  0.93320983  0.62603742     0.09800
S2815       S  0.84519998  0.92423026  0.53631545    -0.33500
S2816       S  0.80142813  0.93688720  0.66067012    -0.33500
H2817       H  0.78532678  0.96077962  0.65655376     0.27900
H2818       H  0.85141297  0.95246847  0.53333489     0.27800
H2819       H  0.85484063  0.89268623  0.58440307     0.18400
H2820       H  0.79137356  0.96791917  0.61235517     0.18400
C2821       C  0.90578424  0.81477400  0.78448383    -0.07400
C2822       C  0.91938801  0.79061026  0.77579852    -0.18500
C2823       C  0.92239868  0.76813281  0.79334398     0.09800
C2824       C  0.91112533  0.76975511  0.81996049    -0.07300
C2825       C  0.90042350  0.79505863  0.82964468    -0.18500
C2826       C  0.89759419  0.81770614  0.81209995     0.09800
S2827       S  0.94015157  0.73794359  0.78042829    -0.33500
S2828       S  0.88080985  0.84833236  0.82527282    -0.33500
H2829       H  0.89293864  0.86693367  0.80688687     0.27900
H2830       H  0.95074412  0.72972894  0.80624160     0.27800
H2831       H  0.92628091  0.78865998  0.75463506     0.18400
H2832       H  0.89255361  0.79661787  0.85044224     0.18400
C2833       C  0.82471175  0.87793694  0.78549494    -0.07400
C2834       C  0.80881459  0.85473864  0.79184390    -0.18500
C2835       C  0.78813215  0.85579871  0.81182281     0.09800
C2836       C  0.78272226  0.88081085  0.82629458    -0.07300
C2837       C  0.80066606  0.90322487  0.82235034    -0.18500
C2838       C  0.82182778  0.90197629  0.80230188     0.09800
S2839       S  0.76774691  0.82511075  0.81744098    -0.33500
S2840       S  0.84333918  0.93188924  0.79715557    -0.33500
H2841       H  0.83377651  0.94729894  0.81988821     0.27900
H2842       H  0.77822061  0.80908582  0.79556460     0.27800
H2843       H  0.81183778  0.83586199  0.78009720     0.18400
H2844       H  0.79674311  0.92236752  0.83335697     0.18400
C2845       C  0.53406558  0.63111073  0.79176093    -0.07400
C2846       C  0.52259746  0.64958951  0.77265886    -0.18500
C2847       C  0.49426326  0.65033314  0.76750220     0.09800
C2848       C  0.47693179  0.63177821  0.78152571    -0.07300
C2849       C  0.48836989  0.61344499  0.80088136    -0.18500
C2850       C  0.51661819  0.61351680  0.80675559     0.09800
S2851       S  0.48092297  0.67499382  0.74292336    -0.33500
S2852       S  0.52872271  0.59243259  0.83494144    -0.33500
H2853       H  0.54865779  0.61151743  0.84425709     0.27900
H2854       H  0.50642329  0.68481535  0.73344326     0.27800
H2855       H  0.53599955  0.66335690  0.76148191     0.18400
H2856       H  0.47501052  0.59997448  0.81253662     0.18400
C2857       C  0.72059370  0.66105381  0.84321128    -0.07400
C2858       C  0.73862101  0.67048778  0.82273024    -0.18500
C2859       C  0.76399007  0.68269840  0.82943937     0.09800
C2860       C  0.77308435  0.68350648  0.85739152    -0.07300
C2861       C  0.75435096  0.67591352  0.87788756    -0.18500
C2862       C  0.72815455  0.66528774  0.87130606     0.09800
S2863       S  0.78315795  0.69708912  0.80117931    -0.33500
S2864       S  0.70545294  0.65659816  0.89939877    -0.33500
H2865       H  0.72391109  0.66214581  0.92127076     0.27900
H2866       H  0.79376573  0.71940065  0.81669428     0.27800
H2867       H  0.73278213  0.66871254  0.80116451     0.18400
H2868       H  0.76073727  0.67720878  0.89930962     0.18400
C2869       C  0.63379210  0.72868943  0.82345451    -0.07400
C2870       C  0.61228012  0.74766160  0.82839222    -0.18500
C2871       C  0.61748728  0.77582629  0.83267595     0.09800
C2872       C  0.64501714  0.78518820  0.83388784    -0.07300
C2873       C  0.66619528  0.76640129  0.82653116    -0.18500
C2874       C  0.66080778  0.73866977  0.82075917     0.09800
S2875       S  0.58808309  0.79827963  0.83525497    -0.33500
S2876       S  0.68905673  0.71766324  0.80879530    -0.33500
H2877       H  0.67310063  0.70173275  0.79029099     0.27900
H2878       H  0.59987768  0.81967250  0.81994891     0.27800
H2879       H  0.59112187  0.74050061  0.82885868     0.18400
H2880       H  0.68745127  0.77316280  0.82541907     0.18400
C2881       C  0.77166789  0.60966078  0.53303676    -0.07400
C2882       C  0.79218622  0.59506700  0.51866519    -0.18500
C2883       C  0.79206541  0.59351900  0.48970418     0.09800
C2884       C  0.77148910  0.60755009  0.47422721    -0.07300
C2885       C  0.74986470  0.62042186  0.48848176    -0.18500
C2886       C  0.74967276  0.62175314  0.51757217     0.09800
S2887       S  0.81932367  0.57400456  0.47347531    -0.33500
S2888       S  0.72275936  0.64170214  0.53414393    -0.33500
H2889       H  0.70805344  0.64913324  0.51015560     0.27900
H2890       H  0.80468273  0.56853939  0.44884512     0.27800
H2891       H  0.80883210  0.58524665  0.53003927     0.18400
H2892       H  0.73437663  0.63156543  0.47672576     0.18400
C2893       C  0.83527574  0.64615193  0.72017647    -0.07400
C2894       C  0.82023610  0.63760404  0.74322719    -0.18500
C2895       C  0.82912734  0.64352980  0.77013799     0.09800
C2896       C  0.85311235  0.65991904  0.77462288    -0.07300
C2897       C  0.86774195  0.66916425  0.75185083    -0.18500
C2898       C  0.85941837  0.66239803  0.72479135     0.09800
S2899       S  0.80979546  0.62767752  0.79758257    -0.33500
S2900       S  0.88096750  0.67414696  0.69704157    -0.33500
H2901       H  0.89674308  0.69323746  0.71243459     0.27900
H2902       H  0.83320597  0.62051342  0.81330953     0.27800
H2903       H  0.80199558  0.62502145  0.74038288     0.18400
H2904       H  0.88592021  0.68171707  0.75537132     0.18400
C2905       C  0.83682649  0.71015977  0.65147875    -0.07400
C2906       C  0.85320530  0.72611994  0.63392285    -0.18500
C2907       C  0.85918563  0.75404024  0.63972646     0.09800
C2908       C  0.84847469  0.76662952  0.66387095    -0.07300
C2909       C  0.83242324  0.75044859  0.68165903    -0.18500
C2910       C  0.82591196  0.72277378  0.67545491     0.09800
S2911       S  0.88116644  0.77280505  0.61641420    -0.33500
S2912       S  0.80283931  0.70544911  0.69865219    -0.33500
H2913       H  0.79335316  0.68503822  0.68022088     0.27900
H2914       H  0.88802060  0.75039261  0.59909077     0.27800
H2915       H  0.86082916  0.71673045  0.61513534     0.18400
H2916       H  0.82408753  0.75973829  0.70022904     0.18400
C2917       C  0.72793381  0.58047646  0.69074698    -0.07400
C2918       C  0.70066008  0.58137212  0.68042117    -0.18500
C2919       C  0.67821287  0.58378235  0.69816043     0.09800
C2920       C  0.68332725  0.58562321  0.72666079    -0.07300
C2921       C  0.71009375  0.58047007  0.73695602    -0.18500
C2922       C  0.73245462  0.57760712  0.71925628     0.09800
S2923       S  0.64440554  0.58871655  0.68329875    -0.33500
S2924       S  0.76637878  0.57462174  0.73436341    -0.33500
H2925       H  0.77554434  0.55487199  0.71505797     0.27900
H2926       H  0.63154584  0.57009970  0.70123647     0.27800
H2927       H  0.69703828  0.58295632  0.65837204     0.18400
H2928       H  0.71393048  0.58078935  0.75903848     0.18400
C2929       C  0.51802242  0.77287041  0.60042928    -0.07400
C2930       C  0.50255839  0.74867190  0.60394418    -0.18500
C2931       C  0.47339423  0.74911388  0.60346268     0.09800
C2932       C  0.45915602  0.77465709  0.60009765    -0.07300
C2933       C  0.47492071  0.79839948  0.59454732    -0.18500
C2934       C  0.50387943  0.79773810  0.59450060     0.09800
S2935       S  0.45518344  0.71721884  0.60964571    -0.33500
S2936       S  0.52163818  0.82989843  0.58873162    -0.33500
H2937       H  0.54624849  0.81799423  0.57900591     0.27900
H2938       H  0.47801929  0.69939866  0.60690945     0.27800
H2939       H  0.51339096  0.72968957  0.60888214     0.18400
H2940       H  0.46463546  0.81806204  0.59130071     0.18400
C2941       C  0.61016122  0.80028603  0.52402393    -0.07400
C2942       C  0.59909965  0.77862019  0.50799962    -0.18500
C2943       C  0.59731648  0.78011453  0.47902080     0.09800
C2944       C  0.60836354  0.80337346  0.46509504    -0.07300
C2945       C  0.61714374  0.82594292  0.48104051    -0.18500
C2946       C  0.61767684  0.82498247  0.51006210     0.09800
S2947       S  0.58029231  0.75221408  0.46053095    -0.33500
S2948       S  0.62906429  0.85550277  0.52813831    -0.33500
H2949       H  0.62951505  0.87363363  0.50554968     0.27900
H2950       H  0.57376489  0.73592723  0.48349774     0.27800
H2951       H  0.59190069  0.76023711  0.51829468     0.18400
H2952       H  0.62471290  0.84411856  0.47065441     0.18400
C2953       C  0.63597974  0.82115189  0.72032602    -0.07400
C2954       C  0.66451563  0.81996501  0.72609113    -0.18500
C2955       C  0.67545151  0.82831149  0.75180797     0.09800
C2956       C  0.65765112  0.83875790  0.77249026    -0.07300
C2957       C  0.62907994  0.83837541  0.76716896    -0.18500
C2958       C  0.61800697  0.82925161  0.74191489     0.09800
S2959       S  0.71221346  0.82532092  0.75657294    -0.33500
S2960       S  0.58078303  0.82840402  0.73816215    -0.33500
H2961       H  0.57404620  0.83602126  0.76535373     0.27900
H2962       H  0.71008363  0.81350542  0.78294652     0.27800
H2963       H  0.67861331  0.81307957  0.71020671     0.18400
H2964       H  0.61513513  0.84619711  0.78267138     0.18400
C2965       C  0.71179598  0.83866666  0.65883018    -0.07400
C2966       C  0.73355319  0.82092354  0.65140729    -0.18500
C2967       C  0.76110189  0.82626807  0.65953504     0.09800
C2968       C  0.76736136  0.85014587  0.67575123    -0.07300
C2969       C  0.74529724  0.86697326  0.68422176    -0.18500
C2970       C  0.71801188  0.86164661  0.67629058     0.09800
S2971       S  0.78759713  0.80254405  0.64817515    -0.33500
S2972       S  0.69277690  0.88613033  0.68887794    -0.33500
H2973       H  0.67369938  0.86605649  0.69690530     0.27900
H2974       H  0.77045690  0.78387864  0.63377608     0.27800
H2975       H  0.72906027  0.80325253  0.63832527     0.18400
H2976       H  0.74928341  0.88509992  0.69688428     0.18400
C2977       C  0.67466520  0.88037051  0.57779768    -0.07400
C2978       C  0.70348780  0.87799100  0.57649009    -0.18500
C2979       C  0.72000885  0.89964820  0.56810479     0.09800
C2980       C  0.70772108  0.92453972  0.55881696    -0.07300
C2981       C  0.67883137  0.92757326  0.56095607    -0.18500
C2982       C  0.66219372  0.90589613  0.57098745     0.09800
S2983       S  0.75673025  0.89428114  0.57179534    -0.33500
S2984       S  0.62546295  0.91086552  0.57443040    -0.33500
H2985       H  0.62439329  0.93757556  0.56312925     0.27900
H2986       H  0.76072217  0.91992338  0.58500470     0.27800
H2987       H  0.71363870  0.85911645  0.58312944     0.18400
H2988       H  0.66931075  0.94678051  0.55451481     0.18400
C2989       C  0.60362053  0.71794080  0.68302434    -0.07400
C2990       C  0.58553655  0.69534926  0.68477265    -0.18500
C2991       C  0.58931375  0.67433677  0.70478971     0.09800
C2992       C  0.61235795  0.67530390  0.72322803    -0.07300
C2993       C  0.63080987  0.69760583  0.72058962    -0.18500
C2994       C  0.62664973  0.71874166  0.70109091     0.09800
S2995       S  0.56355899  0.64754154  0.70728042    -0.33500
S2996       S  0.65155701  0.74634278  0.69890690    -0.33500
H2997       H  0.66565315  0.74060846  0.72372706     0.27900
H2998       H  0.54464843  0.65863251  0.68811585     0.27800
H2999       H  0.56783695  0.69473821  0.67101382     0.18400
H3000       H  0.64859085  0.69873167  0.73421455     0.18400
C3001       C  0.68981496  0.73833867  0.59901073    -0.07400
C3002       C  0.69962137  0.72960033  0.62474653    -0.18500
C3003       C  0.72057877  0.70985162  0.62683980     0.09800
C3004       C  0.73168346  0.69806317  0.60255374    -0.07300
C3005       C  0.72356240  0.70851838  0.57674089    -0.18500
C3006       C  0.70255824  0.72861496  0.57471784     0.09800
S3007       S  0.73282375  0.69974967  0.66070948    -0.33500
S3008       S  0.69043315  0.73976470  0.54123593    -0.33500
H3009       H  0.70904440  0.72390928  0.52552790     0.27900
H3010       H  0.71484037  0.71652319  0.67620775     0.27800
H3011       H  0.69019347  0.73780897  0.64327664     0.18400
H3012       H  0.73237487  0.69968659  0.55821464     0.18400
C3013       C  0.29022034  0.12098803  0.97919678    -0.07400
C3014       C  0.28069201  0.09547818  0.98961671    -0.18500
C3015       C  0.27915235  0.09046831  0.01828060     0.09800
C3016       C  0.28743961  0.11126537  0.03712434    -0.07300
C3017       C  0.29679417  0.13646288  0.02683160    -0.18500
C3018       C  0.29803053  0.14185412  0.99857853     0.09800
S3019       S  0.26692613  0.05724840  0.02949608    -0.33500
S3020       S  0.31006485  0.17578211  0.98851841    -0.33500
H3021       H  0.30921809  0.18856763  0.01464845     0.27900
H3022       H  0.28193393  0.05691726  0.05441797     0.27800
H3023       H  0.27412280  0.07938610  0.97541885     0.18400
H3024       H  0.30277145  0.15249397  0.04130299     0.18400
C3025       C  0.30784584  0.03666828  0.88538106    -0.07400
C3026       C  0.32977853  0.02367110  0.87202261    -0.18500
C3027       C  0.33054521  0.99494172  0.86869487     0.09800
C3028       C  0.30823641  0.97861048  0.87875232    -0.07300
C3029       C  0.28768834  0.99159950  0.89435106    -0.18500
C3030       C  0.28762403  0.02018379  0.89836809     0.09800
S3031       S  0.35951086  0.98070544  0.84978518    -0.33500
S3032       S  0.26101541  0.03417450  0.92021823    -0.33500
H3033       H  0.27863263  0.05390531  0.93227479     0.27900
H3034       H  0.37602226  0.00459460  0.84958007     0.27800
H3035       H  0.34545257  0.03621773  0.86245315     0.18400
H3036       H  0.27127971  0.97946535  0.90326695     0.18400
C3037       C  0.12274615  0.02305807  0.70687258    -0.07400
C3038       C  0.14319826  0.00926955  0.69165028    -0.18500
C3039       C  0.14154793  0.98080266  0.68557121     0.09800
C3040       C  0.11871068  0.96514417  0.69470880    -0.07300
C3041       C  0.09762007  0.97926738  0.70887688    -0.18500
C3042       C  0.09942854  0.00766879  0.71520028     0.09800
S3043       S  0.17062234  0.96479485  0.66902426    -0.33500
S3044       S  0.07240807  0.02227188  0.73609450    -0.33500
H3045       H  0.09057873  0.03666916  0.75381364     0.27900
H3046       H  0.18055725  0.98886614  0.65640380     0.27800
H3047       H  0.16111606  0.02073046  0.68512617     0.18400
H3048       H  0.08027988  0.96765209  0.71666904     0.18400
C3049       C  0.18652885  0.10827543  0.77891933    -0.07400
C3050       C  0.19339516  0.08364112  0.79275485    -0.18500
C3051       C  0.21622587  0.08227905  0.81101450     0.09800
C3052       C  0.23223080  0.10621104  0.81622989    -0.07300
C3053       C  0.22478631  0.13093433  0.80319755    -0.18500
C3054       C  0.20267134  0.13213838  0.78432123     0.09800
S3055       S  0.22335985  0.04972282  0.82762293    -0.33500
S3056       S  0.19501418  0.16461980  0.76761617    -0.33500
H3057       H  0.21929878  0.17842946  0.77572747     0.27900
H3058       H  0.25214008  0.05279072  0.82900686     0.27800
H3059       H  0.18171047  0.06503276  0.78836615     0.18400
H3060       H  0.23639711  0.14948323  0.80796562     0.18400
C3061       C  0.13325271  0.29429035  0.97415362    -0.07400
C3062       C  0.11802485  0.31605231  0.98629962    -0.18500
C3063       C  0.11439896  0.31786615  0.01515562     0.09800
C3064       C  0.12582831  0.29721179  0.03238563    -0.07300
C3065       C  0.14156072  0.27601754  0.02024028    -0.18500
C3066       C  0.14543938  0.27438625  0.99170271     0.09800
S3067       S  0.09457358  0.34651004  0.02850266    -0.33500
S3068       S  0.16475615  0.24528978  0.97888221    -0.33500
H3069       H  0.14478986  0.23907962  0.95860893     0.27900
H3070       H  0.08378185  0.33246362  0.05129381     0.27800
H3071       H  0.10877386  0.33168485  0.97320013     0.18400
H3072       H  0.15075409  0.26020029  0.03319190     0.18400
C3073       C  0.17446296  0.21589098  0.88813107    -0.07400
C3074       C  0.17796849  0.20200296  0.91321499    -0.18500
C3075       C  0.20152251  0.18588860  0.91800747     0.09800
C3076       C  0.22105126  0.18276330  0.89676198    -0.07300
C3077       C  0.21556918  0.19355166  0.87062167    -0.18500
C3078       C  0.19220622  0.20966439  0.86588962     0.09800
S3079       S  0.20688394  0.17252285  0.95230788    -0.33500
S3080       S  0.18657537  0.22405655  0.83194745    -0.33500
H3081       H  0.20833499  0.21023626  0.81860767     0.27900
H3082       H  0.23550876  0.17723654  0.95317887     0.27800
H3083       H  0.16413632  0.20617520  0.93012041     0.18400
H3084       H  0.23018120  0.19004949  0.85413828     0.18400
C3085       C  0.12117356  0.23279995  0.81186459    -0.07400
C3086       C  0.11463965  0.20560882  0.81988320    -0.18500
C3087       C  0.11614877  0.18288282  0.80129152     0.09800
C3088       C  0.12369330  0.18687890  0.77329263    -0.07300
C3089       C  0.13009268  0.21400365  0.76532103    -0.18500
C3090       C  0.12888169  0.23668861  0.78378031     0.09800
S3091       S  0.10926274  0.14915075  0.81504734    -0.33500
S3092       S  0.13582910  0.27058469  0.76998305    -0.33500
H3093       H  0.14506975  0.26229972  0.74374845     0.27900
H3094       H  0.13125583  0.13632092  0.80110460     0.27800
H3095       H  0.10904673  0.20180660  0.84111961     0.18400
H3096       H  0.13531951  0.21767844  0.74399279     0.18400
C3097       C  0.38118745  0.47171381  0.79619833    -0.07400
C3098       C  0.40648866  0.48471221  0.79012711    -0.18500
C3099       C  0.41019739  0.51321622  0.79409082     0.09800
C3100       C  0.38840223  0.52908845  0.80474080    -0.07300
C3101       C  0.36409771  0.51605290  0.81299543    -0.18500
C3102       C  0.36002012  0.48772149  0.80857310     0.09800
S3103       S  0.44256533  0.52936215  0.78538122    -0.33500
S3104       S  0.32727361  0.47312667  0.81811329    -0.33500
H3105       H  0.31679787  0.49638915  0.83213071     0.27900
H3106       H  0.45620775  0.50513687  0.77673066     0.27800
H3107       H  0.42315577  0.47270954  0.78130593     0.18400
H3108       H  0.34734941  0.52857013  0.82097347     0.18400
C3109       C  0.35778099  0.27911169  0.83294661    -0.07400
C3110       C  0.33382777  0.27474882  0.84796226    -0.18500
C3111       C  0.32651366  0.24848827  0.85685948     0.09800
C3112       C  0.34485694  0.22564061  0.85265434    -0.07300
C3113       C  0.36871153  0.23003074  0.83700676    -0.18500
C3114       C  0.37498211  0.25632075  0.82645381     0.09800
S3115       S  0.29351075  0.24668828  0.87379118    -0.33500
S3116       S  0.40585828  0.26071937  0.80633577    -0.33500
H3117       H  0.41656865  0.23392485  0.81012724     0.27900
H3118       H  0.28329957  0.22618551  0.85567356     0.27800
H3119       H  0.32058258  0.29215688  0.85293333     0.18400
H3120       H  0.38277993  0.21301118  0.83356901     0.18400
C3121       C  0.28870156  0.34382379  0.84088459    -0.07400
C3122       C  0.27769623  0.35576419  0.86487358    -0.18500
C3123       C  0.24955211  0.35362589  0.87100972     0.09800
C3124       C  0.23206943  0.33798848  0.85350553    -0.07300
C3125       C  0.24356427  0.32403815  0.83080434    -0.18500
C3126       C  0.27150718  0.32693416  0.82414009     0.09800
S3127       S  0.23645908  0.37069185  0.90142182    -0.33500
S3128       S  0.28375219  0.30805122  0.79440674    -0.33500
H3129       H  0.31135089  0.30617520  0.80310637     0.27900
H3130       H  0.26131714  0.38312046  0.91005280     0.27800
H3131       H  0.29092637  0.36819278  0.87806992     0.18400
H3132       H  0.23055314  0.31094439  0.81797686     0.18400
C3133       C  0.20983770  0.47977023  0.63024571    -0.07400
C3134       C  0.19704728  0.49311909  0.65255375    -0.18500
C3135       C  0.19340058  0.52202604  0.65329142     0.09800
C3136       C  0.20248866  0.53848010  0.63101402    -0.07300
C3137       C  0.21536025  0.52516192  0.60869030    -0.18500
C3138       C  0.21918260  0.49626525  0.60806395     0.09800
S3139       S  0.17892285  0.53756082  0.68386600    -0.33500
S3140       S  0.23763565  0.48206645  0.57908415    -0.33500
H3141       H  0.25334325  0.46340871  0.59497439     0.27900
H3142       H  0.17408965  0.51302391  0.69847706     0.27800
H3143       H  0.18991813  0.48074722  0.66959206     0.18400
H3144       H  0.22311777  0.53747865  0.59184203     0.18400
C3145       C  0.20370833  0.38133814  0.46876912    -0.07400
C3146       C  0.22312162  0.36466442  0.48270586    -0.18500
C3147       C  0.22187374  0.36053084  0.51143858     0.09800
C3148       C  0.20093328  0.37361661  0.52689346    -0.07300
C3149       C  0.18202827  0.39090122  0.51309486    -0.18500
C3150       C  0.18285233  0.39449080  0.48435006     0.09800
S3151       S  0.24785716  0.33960511  0.52835022    -0.33500
S3152       S  0.15704230  0.41652293  0.46890469    -0.33500
H3153       H  0.17396230  0.42597955  0.44753945     0.27900
H3154       H  0.26357564  0.33370739  0.50474485     0.27800
H3155       H  0.23888062  0.35419270  0.47086326     0.18400
H3156       H  0.16655386  0.40190773  0.52487884     0.18400
C3157       C  0.15940032  0.35333019  0.71892375    -0.07400
C3158       C  0.13237600  0.35860732  0.72758393    -0.18500
C3159       C  0.12421201  0.35326706  0.75441490     0.09800
C3160       C  0.14362657  0.34255400  0.77359094    -0.07300
C3161       C  0.17072137  0.33734850  0.76518834    -0.18500
C3162       C  0.17863786  0.34181340  0.73792418     0.09800
S3163       S  0.08873723  0.36132749  0.76246261    -0.33500
S3164       S  0.21302496  0.33101930  0.72875924    -0.33500
H3165       H  0.20459058  0.31803518  0.70401235     0.27900
H3166       H  0.09382492  0.36968668  0.78970593     0.27800
H3167       H  0.11739134  0.36750538  0.71344720     0.18400
H3168       H  0.18544910  0.32843992  0.77959399     0.18400
C3169       C  0.13688609  0.22718213  0.65461834    -0.07400
C3170       C  0.13022233  0.25114957  0.66948619    -0.18500
C3171       C  0.13795977  0.27745139  0.66038381     0.09800
C3172       C  0.15416663  0.28015845  0.63622140    -0.07300
C3173       C  0.16081480  0.25613698  0.62130314    -0.18500
C3174       C  0.15238942  0.22984984  0.62989766     0.09800
S3175       S  0.12453611  0.30696944  0.67890146    -0.33500
S3176       S  0.16103788  0.20060435  0.60797179    -0.33500
H3177       H  0.17901905  0.21433292  0.59004847     0.27900
H3178       H  0.11297373  0.29280327  0.70125938     0.27800
H3179       H  0.11835312  0.24929980  0.68820135     0.18400
H3180       H  0.17253072  0.25800505  0.60250121     0.18400
C3181       C  0.28733844  0.38890763  0.66950830    -0.07400
C3182       C  0.30456334  0.41210958  0.67282423    -0.18500
C3183       C  0.32579495  0.41268932  0.69309380     0.09800
C3184       C  0.32945992  0.38994197  0.71120544    -0.07300
C3185       C  0.31406834  0.36590573  0.70571398    -0.18500
C3186       C  0.29360505  0.36494314  0.68505512     0.09800
S3187       S  0.34565405  0.44387806  0.69641498    -0.33500
S3188       S  0.27476507  0.33307383  0.67968231    -0.33500
H3189       H  0.29171273  0.31615077  0.69622626     0.27900
H3190       H  0.37110247  0.42980314  0.69685072     0.27800
H3191       H  0.30037939  0.43052009  0.66084741     0.18400
H3192       H  0.31716722  0.34801810  0.71867917     0.18400
C3193       C  0.36946768  0.20827654  0.52679332    -0.07400
C3194       C  0.35492329  0.22980294  0.51366114    -0.18500
C3195       C  0.34969637  0.22935695  0.48497703     0.09800
C3196       C  0.35951238  0.20703481  0.46876618    -0.07300
C3197       C  0.37402306  0.18554778  0.48201271    -0.18500
C3198       C  0.37896960  0.18586896  0.51062259     0.09800
S3199       S  0.33155233  0.25793038  0.46928002    -0.33500
S3200       S  0.39846750  0.15758538  0.52511583    -0.33500
H3201       H  0.41143568  0.17328597  0.54601351     0.27900
H3202       H  0.32757505  0.27356990  0.49351022     0.27800
H3203       H  0.34721841  0.24680115  0.52607893     0.18400
H3204       H  0.38201961  0.16848073  0.46983033     0.18400
C3205       C  0.33745605  0.16528938  0.78354246    -0.07400
C3206       C  0.36359840  0.17759360  0.78008729    -0.18500
C3207       C  0.37439350  0.18349029  0.75404717     0.09800
C3208       C  0.35945004  0.17590948  0.73007684    -0.07300
C3209       C  0.33230187  0.16576565  0.73348876    -0.18500
C3210       C  0.32105511  0.16088822  0.75966771     0.09800
S3211       S  0.40739389  0.20045427  0.75317848    -0.33500
S3212       S  0.28637265  0.14773884  0.76082449    -0.33500
H3213       H  0.27848335  0.16564448  0.78237003     0.27900
H3214       H  0.39895537  0.21992180  0.73332593     0.27800
H3215       H  0.37649973  0.18178103  0.79790330     0.18400
H3216       H  0.31971003  0.16084307  0.71556809     0.18400
C3217       C  0.27221467  0.17812932  0.64986973    -0.07400
C3218       C  0.25836857  0.16097567  0.63085317    -0.18500
C3219       C  0.23192556  0.15136513  0.63595630     0.09800
C3220       C  0.21923278  0.15820267  0.66108268    -0.07300
C3221       C  0.23244790  0.17600576  0.67985801    -0.18500
C3222       C  0.25896770  0.18608143  0.67452775     0.09800
S3223       S  0.21599413  0.12924580  0.61035341    -0.33500
S3224       S  0.27519524  0.20712568  0.70082015    -0.33500
H3225       H  0.29776353  0.21609836  0.68532807     0.27900
H3226       H  0.19064785  0.14342283  0.61080589     0.27800
H3227       H  0.26863255  0.15414597  0.61223051     0.18400
H3228       H  0.22243819  0.18132978  0.69910804     0.18400
C3229       C  0.26516472  0.31568082  0.60834924    -0.07400
C3230       C  0.29124381  0.32299381  0.59806600    -0.18500
C3231       C  0.31251169  0.30337808  0.59489023     0.09800
C3232       C  0.30802724  0.27548772  0.60203910    -0.07300
C3233       C  0.28218685  0.26796324  0.61218978    -0.18500
C3234       C  0.26085889  0.28745386  0.61562251     0.09800
S3235       S  0.34474913  0.31505909  0.58087970    -0.33500
S3236       S  0.22876084  0.27519677  0.62972735    -0.33500
H3237       H  0.23381485  0.24666504  0.62667358     0.27900
H3238       H  0.35101991  0.29022049  0.56697094     0.27800
H3239       H  0.29516461  0.34422066  0.59227420     0.18400
H3240       H  0.27900487  0.24671761  0.61829691     0.18400
C3241       C  0.39715806  0.27116337  0.69290957    -0.07400
C3242       C  0.37554354  0.27810729  0.71051280    -0.18500
C3243       C  0.37892137  0.29781120  0.73139292     0.09800
C3244       C  0.40509901  0.31024948  0.73579310    -0.07300
C3245       C  0.42726636  0.30213341  0.71929837    -0.18500
C3246       C  0.42358646  0.28277786  0.69782673     0.09800
S3247       S  0.34838191  0.30573923  0.75095924    -0.33500
S3248       S  0.45296458  0.27254415  0.67763882    -0.33500
H3249       H  0.47261407  0.28943150  0.69097750     0.27900
H3250       H  0.35657091  0.33128805  0.76157443     0.27800
H3251       H  0.35539163  0.26890118  0.70721277     0.18400
H3252       H  0.44718948  0.31169754  0.72269360     0.18400
C3253       C  0.88237895  0.30917966  0.96103852    -0.07400
C3254       C  0.85512215  0.30885230  0.97071440    -0.18500
C3255       C  0.84914280  0.30641708  0.99901196     0.09800
C3256       C  0.87110302  0.30513008  0.01856177    -0.07300
C3257       C  0.89843400  0.30653547  0.00856471    -0.18500
C3258       C  0.90420268  0.30807999  0.98023207     0.09800
S3259       S  0.81336358  0.30490838  0.00919894    -0.33500
S3260       S  0.93949912  0.30839118  0.96856373    -0.33500
H3261       H  0.95208752  0.30709441  0.99478918     0.27900
H3262       H  0.80197530  0.31411461  0.98405930     0.27800
H3263       H  0.83835750  0.30887871  0.95582910     0.18400
H3264       H  0.91559204  0.30586224  0.02296536     0.18400
C3265       C  0.97781181  0.29062034  0.85972273    -0.07400
C3266       C  0.99456524  0.27515177  0.84176735    -0.18500
C3267       C  0.02343156  0.27838122  0.84163112     0.09800
C3268       C  0.03606720  0.29750046  0.86000020    -0.07300
C3269       C  0.01930820  0.31324540  0.87763821    -0.18500
C3270       C  0.99043599  0.31035955  0.87743929     0.09800
S3271       S  0.04389093  0.25657962  0.81921291    -0.33500
S3272       S  0.97000111  0.33302199  0.89896899    -0.33500
H3273       H  0.99129721  0.35152371  0.90605218     0.27900
H3274       H  0.02177954  0.24466340  0.80443471     0.27800
H3275       H  0.98499015  0.26012770  0.82813292     0.18400
H3276       H  0.02894055  0.32801350  0.89154372     0.18400
C3277       C  0.71445169  0.12205472  0.97640998    -0.07400
C3278       C  0.68967677  0.11570799  0.98980546    -0.18500
C3279       C  0.68856405  0.11198739  0.01871376     0.09800
C3280       C  0.71268896  0.11561367  0.03536658    -0.07300
C3281       C  0.73762697  0.12093319  0.02158633    -0.18500
C3282       C  0.73879471  0.12377358  0.99267253     0.09800
S3283       S  0.65561236  0.10229476  0.03266567    -0.33500
S3284       S  0.77201901  0.13037578  0.97774078    -0.33500
H3285       H  0.76798022  0.11260130  0.95501765     0.27900
H3286       H  0.66652195  0.08611404  0.05407999     0.27800
H3287       H  0.67095829  0.11350310  0.97760263     0.18400
H3288       H  0.75645795  0.12369423  0.03347711     0.18400
C3289       C  0.70088821  0.96929528  0.87054739    -0.07400
C3290       C  0.71038222  0.98173300  0.89524955    -0.18500
C3291       C  0.71067030  0.01062306  0.89885677     0.09800
C3292       C  0.70129631  0.02796470  0.87735893    -0.07300
C3293       C  0.69038639  0.01566007  0.85331645    -0.18500
C3294       C  0.69019431  0.98674537  0.84956320     0.09800
S3295       S  0.72296393  0.02411455  0.93147673    -0.33500
S3296       S  0.67610277  0.97274516  0.81783496    -0.33500
H3297       H  0.66608804  0.99776368  0.80688269     0.27900
H3298       H  0.70527100  0.04724464  0.93174716     0.27800
H3299       H  0.71822947  0.96885398  0.91178736     0.18400
H3300       H  0.68312620  0.02886649  0.83681061     0.18400
C3301       C  0.82389460  0.22655737  0.90480123    -0.07400
C3302       C  0.82122743  0.20922303  0.88147672    -0.18500
C3303       C  0.80152144  0.18825650  0.88007788     0.09800
C3304       C  0.78403179  0.18387882  0.90255526    -0.07300
C3305       C  0.78663874  0.20084838  0.92619402    -0.18500
C3306       C  0.80654772  0.22205434  0.92763172     0.09800
S3307       S  0.79770058  0.16820731  0.84871174    -0.33500
S3308       S  0.80892866  0.24233138  0.95889713    -0.33500
H3309       H  0.83763073  0.24636289  0.95773428     0.27900
H3310       H  0.82341938  0.17511408  0.83754137     0.27800
H3311       H  0.83400712  0.21281382  0.86362360     0.18400
H3312       H  0.77271170  0.19795919  0.94331181     0.18400
C3313       C  0.97289466  0.13174005  0.70484716    -0.07400
C3314       C  0.98520294  0.15514188  0.71746961    -0.18500
C3315       C  0.01405939  0.15798051  0.71973237     0.09800
C3316       C  0.03143614  0.13723542  0.70876342    -0.07300
C3317       C  0.01907935  0.11457969  0.69501504    -0.18500
C3318       C  0.99040167  0.11179928  0.69261363     0.09800
S3319       S  0.02725633  0.18763030  0.73818704    -0.33500
S3320       S  0.97770507  0.08274998  0.67281627    -0.33500
H3321       H  0.95692446  0.09805688  0.65928559     0.27900
H3322       H  0.04675028  0.17248283  0.75364197     0.27800
H3323       H  0.97225309  0.17090178  0.72675749     0.18400
H3324       H  0.03197247  0.09874092  0.68576565     0.18400
C3325       C  0.86358906  0.95960975  0.70697827    -0.07400
C3326       C  0.88587268  0.97255007  0.69374802    -0.18500
C3327       C  0.88833272  0.00145569  0.69269165     0.09800
C3328       C  0.86825443  0.01818610  0.70565758    -0.07300
C3329       C  0.84564464  0.00529637  0.71831275    -0.18500
C3330       C  0.84284689  0.97642270  0.71886756     0.09800
S3331       S  0.91645659  0.01642310  0.67360616    -0.33500
S3332       S  0.81304229  0.96182606  0.73557456    -0.33500
H3333       H  0.79951715  0.98685377  0.74179413     0.27900
H3334       H  0.92701457  0.99158944  0.66263422     0.27800
H3335       H  0.90155903  0.95987936  0.68409631     0.18400
H3336       H  0.83005341  0.01800944  0.72806358     0.18400
C3337       C  0.84637420  0.06550617  0.61575826    -0.07400
C3338       C  0.84685944  0.07900708  0.59009416    -0.18500
C3339       C  0.83372094  0.06753328  0.56669726     0.09800
C3340       C  0.82028182  0.04172637  0.56888766    -0.07300
C3341       C  0.82248648  0.02730393  0.59376758    -0.18500
C3342       C  0.83482148  0.03893299  0.61717671     0.09800
S3343       S  0.83120283  0.08846140  0.53618899    -0.33500
S3344       S  0.83292780  0.02064442  0.64923861    -0.33500
H3345       H  0.83149553  0.99410562  0.63737687     0.27900
H3346       H  0.83659718  0.06646361  0.51790367     0.27800
H3347       H  0.85537480  0.09969346  0.58882300     0.18400
H3348       H  0.81168550  0.00765418  0.59579440     0.18400
C3349       C  0.82061598  0.09230748  0.77637199    -0.07400
C3350       C  0.82772027  0.09420609  0.80440914    -0.18500
C3351       C  0.80727945  0.09395812  0.82500016     0.09800
C3352       C  0.77877371  0.09290609  0.81751860    -0.07300
C3353       C  0.77209528  0.08887608  0.78953672    -0.18500
C3354       C  0.79246062  0.08829625  0.76910367     0.09800
S3355       S  0.81916758  0.09466006  0.86031545    -0.33500
S3356       S  0.78202844  0.08261981  0.73351782    -0.33500
H3357       H  0.75346685  0.08058958  0.73799212     0.27900
H3358       H  0.79946877  0.07551967  0.86945565     0.27800
H3359       H  0.84918824  0.09675854  0.81029131     0.18400
H3360       H  0.75064061  0.08714605  0.78342840     0.18400
C3361       C  0.89037661  0.20932953  0.81765806    -0.07400
C3362       C  0.86478323  0.20356973  0.80513951    -0.18500
C3363       C  0.86202441  0.18231174  0.78567145     0.09800
C3364       C  0.88554585  0.16701867  0.77799674    -0.07300
C3365       C  0.91016208  0.17022736  0.79321194    -0.18500
C3366       C  0.91285304  0.19130118  0.81297574     0.09800
S3367       S  0.82859127  0.17508856  0.77058385    -0.33500
S3368       S  0.94613097  0.19583240  0.82917087    -0.33500
H3369       H  0.94801164  0.22396863  0.82232816     0.27900
H3370       H  0.81356985  0.19472873  0.78590719     0.27800
H3371       H  0.84722344  0.21671101  0.80966235     0.18400
H3372       H  0.92814396  0.15793229  0.78800708     0.18400
C3373       C  0.47156156  0.21600811  0.62280624    -0.07400
C3374       C  0.48585292  0.24131092  0.62329534    -0.18500
C3375       C  0.51494472  0.24261458  0.62104049     0.09800
C3376       C  0.53039154  0.21795580  0.61696208    -0.07300
C3377       C  0.51552706  0.19292369  0.61437118    -0.18500
C3378       C  0.48670397  0.19174324  0.61696874     0.09800
S3379       S  0.53171701  0.27578378  0.62450807    -0.33500
S3380       S  0.47057628  0.15854570  0.61204450    -0.33500
H3381       H  0.44594825  0.16872488  0.60037827     0.27900
H3382       H  0.50774477  0.29179833  0.62827902     0.27800
H3383       H  0.47411020  0.26018298  0.62570753     0.18400
H3384       H  0.52647911  0.17371194  0.61062853     0.18400
C3385       C  0.61996565  0.21270359  0.53313134    -0.07400
C3386       C  0.64221976  0.22585758  0.52015896    -0.18500
C3387       C  0.64672062  0.22383394  0.49136499     0.09800
C3388       C  0.62845529  0.20812841  0.47449731    -0.07300
C3389       C  0.60622471  0.19484416  0.48761180    -0.18500
C3390       C  0.60199295  0.19673514  0.51638364     0.09800
S3391       S  0.67543891  0.24218239  0.47660795    -0.33500
S3392       S  0.57326618  0.17811534  0.53052889    -0.33500
H3393       H  0.56915208  0.19579294  0.55329585     0.27900
H3394       H  0.68879036  0.24889811  0.50162823     0.27800
H3395       H  0.65678374  0.23693852  0.53288072     0.18400
H3396       H  0.59194250  0.18264003  0.47531731     0.18400
C3397       C  0.73356667  0.17142402  0.64346384    -0.07400
C3398       C  0.74348147  0.17513332  0.67024619    -0.18500
C3399       C  0.77069357  0.16918689  0.67702290     0.09800
C3400       C  0.78796557  0.15710206  0.65677916    -0.07300
C3401       C  0.77882260  0.15603536  0.62922856    -0.18500
C3402       C  0.75169627  0.16339248  0.62229288     0.09800
S3403       S  0.78144833  0.17684182  0.71194836    -0.33500
S3404       S  0.73982692  0.16003958  0.58706836    -0.33500
H3405       H  0.76454756  0.14958650  0.57605145     0.27900
H3406       H  0.80805304  0.18552584  0.70446277     0.27800
H3407       H  0.72945077  0.18176328  0.68639858     0.18400
H3408       H  0.79228817  0.14769891  0.61346573     0.18400
C3409       C  0.65033053  0.17974289  0.72794929    -0.07400
C3410       C  0.63150521  0.16532710  0.74425329    -0.18500
C3411       C  0.63878425  0.15392240  0.76990247     0.09800
C3412       C  0.66599325  0.15724014  0.78081677    -0.07300
C3413       C  0.68444551  0.17362088  0.76561560    -0.18500
C3414       C  0.67662738  0.18557495  0.73987410     0.09800
S3415       S  0.61274633  0.13377635  0.78727165    -0.33500
S3416       S  0.69913357  0.21041035  0.72404645    -0.33500
H3417       H  0.72012816  0.20965633  0.74425374     0.27900
H3418       H  0.59275394  0.13330757  0.76608106     0.27800
H3419       H  0.61094284  0.16170928  0.73619959     0.18400
H3420       H  0.70472080  0.17761558  0.77424444     0.18400
C3421       C  0.70850253  0.07616142  0.55040225    -0.07400
C3422       C  0.69964822  0.09756775  0.53315259    -0.18500
C3423       C  0.68481056  0.12020131  0.54361124     0.09800
C3424       C  0.67872305  0.12135738  0.57209539    -0.07300
C3425       C  0.68608825  0.09896142  0.58898533    -0.18500
C3426       C  0.70104608  0.07644205  0.57845230     0.09800
S3427       S  0.67346770  0.14710689  0.52028089    -0.33500
S3428       S  0.71229120  0.04917946  0.60135203    -0.33500
H3429       H  0.70112695  0.06037882  0.62570480     0.27900
H3430       H  0.68623988  0.13661623  0.49647344     0.27800
H3431       H  0.70425427  0.09640148  0.51160153     0.18400
H3432       H  0.68161477  0.09990878  0.61081310     0.18400
C3433       C  0.53885288  0.38749152  0.80551114    -0.07400
C3434       C  0.52425103  0.37936381  0.82920067    -0.18500
C3435       C  0.49515492  0.37950498  0.83010146     0.09800
C3436       C  0.47952371  0.38699325  0.80637284    -0.07300
C3437       C  0.49421045  0.39713023  0.78354995    -0.18500
C3438       C  0.52325671  0.39769159  0.78284928     0.09800
S3439       S  0.47972610  0.36944096  0.86211005    -0.33500
S3440       S  0.53969365  0.41113884  0.75237837    -0.33500
H3441       H  0.51597019  0.42276457  0.74011985     0.27900
H3442       H  0.46054341  0.39135184  0.86215004     0.27800
H3443       H  0.53555590  0.37200186  0.84710245     0.18400
H3444       H  0.48286378  0.40383463  0.76546202     0.18400
C3445       C  0.62353359  0.46446236  0.78941116    -0.07400
C3446       C  0.61619276  0.47894460  0.81362510    -0.18500
C3447       C  0.62032038  0.50751645  0.81637673     0.09800
C3448       C  0.63317676  0.52206325  0.79496461    -0.07300
C3449       C  0.63981697  0.50802108  0.77044179    -0.18500
C3450       C  0.63422046  0.47970629  0.76706031     0.09800
S3451       S  0.61000835  0.52510902  0.84769320    -0.33500
S3452       S  0.64092535  0.46453888  0.73376355    -0.33500
H3453       H  0.61493909  0.45172183  0.73192346     0.27900
H3454       H  0.59848604  0.50203798  0.86079976     0.27800
H3455       H  0.60764370  0.46766911  0.83077157     0.18400
H3456       H  0.64834846  0.51947074  0.75335781     0.18400
C3457       C  0.72569646  0.33721653  0.83555528    -0.07400
C3458       C  0.73052094  0.31350407  0.85179985    -0.18500
C3459       C  0.75732727  0.30273668  0.85615278     0.09800
C3460       C  0.78020457  0.31595636  0.84402858    -0.07300
C3461       C  0.77507610  0.33828988  0.82617648    -0.18500
C3462       C  0.74838318  0.34890498  0.82170454     0.09800
S3463       S  0.76197809  0.27363314  0.87899003    -0.33500
S3464       S  0.74407001  0.37750267  0.79832353    -0.33500
H3465       H  0.77011282  0.37546046  0.78579529     0.27900
H3466       H  0.73384517  0.26763967  0.88253464     0.27800
H3467       H  0.71327798  0.30397687  0.86209272     0.18400
H3468       H  0.79237585  0.34849978  0.81666294     0.18400
C3469       C  0.65932394  0.21081699  0.83834544    -0.07400
C3470       C  0.68005221  0.22576105  0.82473393    -0.18500
C3471       C  0.67520924  0.25262241  0.81539451     0.09800
C3472       C  0.64926345  0.26471986  0.81994219    -0.07300
C3473       C  0.62780307  0.24863922  0.83064636    -0.18500
C3474       C  0.63238359  0.22174620  0.83955071     0.09800
S3475       S  0.70293278  0.27068124  0.79882486    -0.33500
S3476       S  0.60407168  0.20442278  0.85598693    -0.33500
H3477       H  0.60547800  0.18131114  0.83823734     0.27900
H3478       H  0.68599269  0.28968096  0.78471167     0.27800
H3479       H  0.70054394  0.21699939  0.82257229     0.18400
H3480       H  0.60784582  0.25793931  0.83467330     0.18400
C3481       C  0.58804054  0.30286287  0.74343356    -0.07400
C3482       C  0.59054074  0.31196313  0.71609980    -0.18500
C3483       C  0.59269004  0.29340544  0.69392414     0.09800
C3484       C  0.59230434  0.26464146  0.69885548    -0.07300
C3485       C  0.58690207  0.25536918  0.72577658    -0.18500
C3486       C  0.58468151  0.27424893  0.74812378     0.09800
S3487       S  0.59638472  0.30689595  0.65938910    -0.33500
S3488       S  0.57888292  0.26160594  0.78243016    -0.33500
H3489       H  0.58077774  0.23325922  0.77595115     0.27900
H3490       H  0.59545647  0.33515189  0.66639961     0.27800
H3491       H  0.59259536  0.33392102  0.71234419     0.18400
H3492       H  0.58584958  0.23334152  0.72948189     0.18400
C3493       C  0.78022958  0.53031536  0.60890822    -0.07400
C3494       C  0.75717531  0.51557101  0.61856681    -0.18500
C3495       C  0.75617927  0.48648084  0.61809826     0.09800
C3496       C  0.77891841  0.47109761  0.60808206    -0.07300
C3497       C  0.80114870  0.48593687  0.59671943    -0.18500
C3498       C  0.80189266  0.51504761  0.59670944     0.09800
S3499       S  0.72661800  0.47037404  0.63337344    -0.33500
S3500       S  0.83113181  0.53139234  0.58096709    -0.33500
H3501       H  0.81619525  0.55441218  0.57129265     0.27900
H3502       H  0.72168395  0.45311672  0.61038482     0.27800
H3503       H  0.74019830  0.52673910  0.62793240     0.18400
H3504       H  0.81870885  0.47469056  0.58858515     0.18400
C3505       C  0.79207790  0.37734333  0.53416552    -0.07400
C3506       C  0.77688058  0.35533739  0.52263841    -0.18500
C3507       C  0.77569085  0.35055270  0.49396885     0.09800
C3508       C  0.78944781  0.36873776  0.47594766    -0.07300
C3509       C  0.80503958  0.39056896  0.48766724    -0.18500
C3510       C  0.80667014  0.39489574  0.51637408     0.09800
S3511       S  0.75623559  0.32133726  0.48105508    -0.33500
S3512       S  0.82713955  0.42348349  0.52893565    -0.33500
H3513       H  0.81170160  0.42848197  0.55291187     0.27900
H3514       H  0.74469329  0.31338051  0.50633044     0.27800
H3515       H  0.76638030  0.34135775  0.53635917     0.18400
H3516       H  0.81597991  0.40459457  0.47429918     0.18400
C3517       C  0.84058163  0.34334965  0.78173468    -0.07400
C3518       C  0.84128192  0.37163283  0.77541939    -0.18500
C3519       C  0.83116644  0.38171803  0.75001559     0.09800
C3520       C  0.82062373  0.36289025  0.72986330    -0.07300
C3521       C  0.81773521  0.33504520  0.73735071    -0.18500
C3522       C  0.82693101  0.32522714  0.76290137     0.09800
S3523       S  0.83274124  0.41853702  0.74385285    -0.33500
S3524       S  0.82050158  0.28914011  0.76959517    -0.33500
H3525       H  0.81263649  0.29358108  0.79711228     0.27900
H3526       H  0.84242472  0.42650409  0.77015614     0.27800
H3527       H  0.85086286  0.38576330  0.78998551     0.18400
H3528       H  0.80886378  0.32036568  0.72282802     0.18400
C3529       C  0.86024314  0.22266399  0.67342203    -0.07400
C3530       C  0.84841081  0.22736174  0.64726629    -0.18500
C3531       C  0.83938497  0.25378565  0.63944954     0.09800
C3532       C  0.84156697  0.27579040  0.65857999    -0.07300
C3533       C  0.85160720  0.27051010  0.68537623    -0.18500
C3534       C  0.86096055  0.24432862  0.69297078     0.09800
S3535       S  0.82768103  0.25945222  0.60441961    -0.33500
S3536       S  0.87352127  0.23999895  0.72779669    -0.33500
H3537       H  0.86230617  0.21345652  0.73075523     0.27900
H3538       H  0.83334201  0.23271856  0.59429037     0.27800
H3539       H  0.84764949  0.21054911  0.63240499     0.18400
H3540       H  0.85298783  0.28720260  0.70037244     0.18400
C3541       C  0.74299497  0.39779619  0.70193725    -0.07400
C3542       C  0.73504524  0.42161668  0.71653656    -0.18500
C3543       C  0.71578177  0.42004294  0.73803390     0.09800
C3544       C  0.70286898  0.39443531  0.74381344    -0.07300
C3545       C  0.71260318  0.37051871  0.73078283    -0.18500
C3546       C  0.73315136  0.37168260  0.71084472     0.09800
S3547       S  0.70781486  0.45145629  0.75637226    -0.33500
S3548       S  0.74663823  0.33934440  0.69736048    -0.33500
H3549       H  0.73093995  0.32132661  0.71357939     0.27900
H3550       H  0.71514779  0.44039710  0.78220777     0.27800
H3551       H  0.74317213  0.44156903  0.71068097     0.18400
H3552       H  0.70397560  0.35070996  0.73636727     0.18400
C3553       C  0.74616354  0.29938093  0.60125583    -0.07400
C3554       C  0.72716582  0.29956045  0.57924490    -0.18500
C3555       C  0.70434420  0.28153839  0.57877831     0.09800
C3556       C  0.70106895  0.26210484  0.60016045    -0.07300
C3557       C  0.72086187  0.26106512  0.62141530    -0.18500
C3558       C  0.74304582  0.27970085  0.62242130     0.09800
S3559       S  0.67784932  0.28594604  0.55285569    -0.33500
S3560       S  0.76643153  0.27921772  0.65162120    -0.33500
H3561       H  0.75404630  0.25719274  0.66569009     0.27900
H3562       H  0.69115509  0.30667477  0.53771887     0.27800
H3563       H  0.72897027  0.31537870  0.56365798     0.18400
H3564       H  0.71814365  0.24638016  0.63795638     0.18400
C3565       C  0.55705202  0.70220394  0.92510028    -0.07400
C3566       C  0.56800563  0.67681111  0.93363568    -0.18500
C3567       C  0.58127037  0.65944496  0.91476376     0.09800
C3568       C  0.58304833  0.66764060  0.88696426    -0.07300
C3569       C  0.56980351  0.69180439  0.87813750    -0.18500
C3570       C  0.55734824  0.70952301  0.89707628     0.09800
S3571       S  0.59603589  0.62763750  0.92732598    -0.33500
S3572       S  0.54386944  0.74230519  0.88558327    -0.33500
H3573       H  0.54603520  0.73714654  0.85708428     0.27900
H3574       H  0.59497858  0.61360531  0.90181810     0.27800
H3575       H  0.56732238  0.67112273  0.95522302     0.18400
H3576       H  0.57145989  0.69806735  0.85679751     0.18400
C3577       C  0.56205471  0.82056461  0.93841843    -0.07400
C3578       C  0.58004521  0.83618562  0.95565714    -0.18500
C3579       C  0.60405763  0.84861589  0.94556953     0.09800
C3580       C  0.61001178  0.84664068  0.91732351    -0.07300
C3581       C  0.58939975  0.83599004  0.89951753    -0.18500
C3582       C  0.56531509  0.82344430  0.90971750     0.09800
S3583       S  0.62688144  0.86528443  0.96994155    -0.33500
S3584       S  0.53891876  0.81318432  0.88554079    -0.33500
H3585       H  0.51713755  0.81869238  0.90378973     0.27900
H3586       H  0.63852815  0.88365022  0.95096566     0.27800
H3587       H  0.57639966  0.83738053  0.97764117     0.18400
H3588       H  0.59224015  0.83720534  0.87751887     0.18400
C3589       C  0.46827669  0.69614784  0.91261827    -0.07400
C3590       C  0.47890454  0.69727001  0.88567766    -0.18500
C3591       C  0.47036056  0.67896342  0.86468541     0.09800
C3592       C  0.44995198  0.65889885  0.86999022    -0.07300
C3593       C  0.44139784  0.65565276  0.89750743    -0.18500
C3594       C  0.45052592  0.67371738  0.91880110     0.09800
S3595       S  0.48434824  0.68286130  0.83050815    -0.33500
S3596       S  0.43600762  0.66903693  0.95243417    -0.33500
H3597       H  0.46192618  0.66863417  0.96572355     0.27900
H3598       H  0.50510436  0.70201696  0.83744042     0.27800
H3599       H  0.49306287  0.71354767  0.88048456     0.18400
H3600       H  0.42553301  0.64065374  0.90206250     0.18400
C3601       C  0.43015619  0.80550030  0.93968140    -0.07400
C3602       C  0.40899320  0.81780048  0.95514687    -0.18500
C3603       C  0.39059179  0.83704565  0.94333597     0.09800
C3604       C  0.39220509  0.84331748  0.91479865    -0.07300
C3605       C  0.41481705  0.83249058  0.90001759    -0.18500
C3606       C  0.43365287  0.81379650  0.91207229     0.09800
S3607       S  0.36542082  0.85239146  0.96588319    -0.33500
S3608       S  0.46022651  0.79831071  0.89106095    -0.33500
H3609       H  0.45664418  0.81555095  0.86801921     0.27900
H3610       H  0.36517197  0.87810451  0.95243345     0.27800
H3611       H  0.40683082  0.81246828  0.97669077     0.18400
H3612       H  0.41657315  0.83694585  0.87824179     0.18400
C3613       C  0.45025550  0.70995873  0.06021594    -0.07400
C3614       C  0.46034902  0.71782402  0.08655064    -0.18500
C3615       C  0.44881471  0.70798202  0.11124387     0.09800
C3616       C  0.42711945  0.68868089  0.11009374    -0.07300
C3617       C  0.41616926  0.68170078  0.08361793    -0.18500
C3618       C  0.42721608  0.69236819  0.05886632     0.09800
S3619       S  0.46239885  0.71996613  0.14393863    -0.33500
S3620       S  0.41280776  0.68241733  0.02579622    -0.33500
H3621       H  0.39175348  0.66544566  0.03601444     0.27900
H3622       H  0.48367717  0.73642516  0.13337323     0.27800
H3623       H  0.47761051  0.73196043  0.08776152     0.18400
H3624       H  0.39886863  0.66764751  0.08227617     0.18400
C3625       C  0.43460225  0.80298734  0.04010490    -0.07400
C3626       C  0.43638657  0.82655140  0.05697913    -0.18500
C3627       C  0.41260740  0.83871357  0.06867045     0.09800
C3628       C  0.38610944  0.82673585  0.06345358    -0.07300
C3629       C  0.38466092  0.80343059  0.04637787    -0.18500
C3630       C  0.40820346  0.79138382  0.03496980     0.09800
S3631       S  0.41716813  0.86880876  0.09065917    -0.33500
S3632       S  0.40313529  0.76064681  0.01459446    -0.33500
H3633       H  0.37788492  0.75264429  0.02621008     0.27900
H3634       H  0.44580004  0.87185254  0.08722914     0.27800
H3635       H  0.45657011  0.83517112  0.06124825     0.18400
H3636       H  0.36476316  0.79412778  0.04214080     0.18400
C3637       C  0.57582131  0.69552945  0.04636798    -0.07400
C3638       C  0.56080596  0.67548630  0.06056198    -0.18500
C3639       C  0.57106733  0.66349455  0.08480191     0.09800
C3640       C  0.59693549  0.67223140  0.09568654    -0.07300
C3641       C  0.61314418  0.69006589  0.07972270    -0.18500
C3642       C  0.60292994  0.70166756  0.05525107     0.09800
S3643       S  0.54918792  0.63837553  0.10112431    -0.33500
S3644       S  0.62392454  0.72717959  0.03851527    -0.33500
H3645       H  0.61353412  0.72204124  0.01182884     0.27900
H3646       H  0.57061779  0.62194742  0.11184447     0.27800
H3647       H  0.53989761  0.67079401  0.05393579     0.18400
H3648       H  0.63323032  0.69657894  0.08725128     0.18400
C3649       C  0.57770771  0.81290681  0.05049536    -0.07400
C3650       C  0.57238463  0.82477890  0.07640870    -0.18500
C3651       C  0.59352811  0.83789232  0.09163862     0.09800
C3652       C  0.61952781  0.84234174  0.07933670    -0.07300
C3653       C  0.62412590  0.83264594  0.05275605    -0.18500
C3654       C  0.60454589  0.81680510  0.03880150     0.09800
S3655       S  0.58865302  0.84385941  0.12803990    -0.33500
S3656       S  0.61856666  0.79903817  0.00902914    -0.33500
H3657       H  0.59468919  0.79732893  0.99346216     0.27900
H3658       H  0.56063208  0.83646786  0.12902367     0.27800
H3659       H  0.55275031  0.82079831  0.08608331     0.18400
H3660       H  0.64451321  0.83492822  0.04392684     0.18400
C3661       C  0.92816895  0.53374679  0.70078421    -0.07400
C3662       C  0.90119614  0.52346654  0.70336834    -0.18500
C3663       C  0.87832686  0.53637250  0.69075603     0.09800
C3664       C  0.88223907  0.56064627  0.67483772    -0.07300
C3665       C  0.90953400  0.56959422  0.67053225    -0.18500
C3666       C  0.93234146  0.55631394  0.68285909     0.09800
S3667       S  0.84454099  0.52149029  0.69605448    -0.33500
S3668       S  0.96593431  0.57045916  0.67631671    -0.33500
H3669       H  0.97720896  0.54473435  0.66854415     0.27900
H3670       H  0.85274004  0.49942835  0.71307380     0.27800
H3671       H  0.89790682  0.50573043  0.71644821     0.18400
H3672       H  0.91324991  0.58762593  0.65795663     0.18400
C3673       C  0.94608091  0.56582637  0.80714406    -0.07400
C3674       C  0.95388601  0.57252241  0.83434475    -0.18500
C3675       C  0.93939165  0.59256368  0.84964157     0.09800
C3676       C  0.91561558  0.60517651  0.83802843    -0.07300
C3677       C  0.90710173  0.59724600  0.81139746    -0.18500
C3678       C  0.92218480  0.57821949  0.79571291     0.09800
S3679       S  0.95253982  0.60126180  0.88348865    -0.33500
S3680       S  0.91033069  0.57001457  0.76119756    -0.33500
H3681       H  0.88635273  0.58650796  0.76118119     0.27900
H3682       H  0.92706982  0.60956076  0.89448603     0.27800
H3683       H  0.97195021  0.56277016  0.84338823     0.18400
H3684       H  0.88927418  0.60722826  0.80217158     0.18400
C3685       C  0.92957237  0.43969074  0.70714453    -0.07400
C3686       C  0.92552047  0.44803993  0.67970971    -0.18500
C3687       C  0.90673319  0.43418061  0.66244693     0.09800
C3688       C  0.89194305  0.41146851  0.67292447    -0.07300
C3689       C  0.89702753  0.40268674  0.70007757    -0.18500
C3690       C  0.91534479  0.41661964  0.71734594     0.09800
S3691       S  0.90288910  0.44614376  0.62747761    -0.33500
S3692       S  0.92062092  0.40418697  0.75216728    -0.33500
H3693       H  0.90060911  0.38317728  0.75164337     0.27900
H3694       H  0.89838042  0.41970321  0.61603313     0.27800
H3695       H  0.93681693  0.46558418  0.67184318     0.18400
H3696       H  0.88573702  0.38536170  0.70832972     0.18400
C3697       C  0.93730697  0.37131141  0.84048632    -0.07400
C3698       C  0.92970863  0.39836519  0.84798327    -0.18500
C3699       C  0.94142840  0.42143527  0.83500842     0.09800
C3700       C  0.96136565  0.41746425  0.81397845    -0.07300
C3701       C  0.97069551  0.39055992  0.80861148    -0.18500
C3702       C  0.95893589  0.36764746  0.82125751     0.09800
S3703       S  0.92792357  0.45489845  0.84431328    -0.33500
S3704       S  0.97035093  0.33389478  0.81008136    -0.33500
H3705       H  0.99594138  0.34220215  0.79945571     0.27900
H3706       H  0.95409327  0.46553231  0.85125250     0.27800
H3707       H  0.91296981  0.40155714  0.86236538     0.18400
H3708       H  0.98633495  0.38725695  0.79308499     0.18400
C3709       C  0.07848698  0.46129320  0.70189645    -0.07400
C3710       C  0.07266765  0.44604807  0.67764006    -0.18500
C3711       C  0.09381802  0.43530787  0.66059859     0.09800
C3712       C  0.12197276  0.43953008  0.66789456    -0.07300
C3713       C  0.12759611  0.45635915  0.69108922    -0.18500
C3714       C  0.10659329  0.46751269  0.70764354     0.09800
S3715       S  0.08409991  0.41539820  0.63040625    -0.33500
S3716       S  0.11754962  0.48944343  0.73584260    -0.33500
H3717       H  0.09804502  0.51022720  0.72981479     0.27900
H3718       H  0.05588525  0.41286018  0.63645176     0.27800
H3719       H  0.05135378  0.44176720  0.67239494     0.18400
H3720       H  0.14883795  0.46041866  0.69694118     0.18400
C3721       C  0.09628734  0.40103326  0.83771682    -0.07400
C3722       C  0.06906839  0.40356054  0.84704612    -0.18500
C3723       C  0.05078140  0.42278643  0.83528572     0.09800
C3724       C  0.05936172  0.43877342  0.81264685    -0.07300
C3725       C  0.08687471  0.43715298  0.80418403    -0.18500
C3726       C  0.10554191  0.41876400  0.81655724     0.09800
S3727       S  0.01707586  0.42570329  0.85016420    -0.33500
S3728       S  0.14005723  0.41604323  0.80274339    -0.33500
H3729       H  0.13651013  0.43456592  0.78071133     0.27900
H3730       H  0.01193316  0.45282633  0.84123961     0.27800
H3731       H  0.06195663  0.39033282  0.86348956     0.18400
H3732       H  0.09337009  0.44951842  0.78685764     0.18400
C3733       C  0.10919050  0.59132477  0.70095364    -0.07400
C3734       C  0.09848295  0.56973659  0.68468709    -0.18500
C3735       C  0.07297615  0.55803362  0.69057393     0.09800
C3736       C  0.05794188  0.56806767  0.71328654    -0.07300
C3737       C  0.06856876  0.58984371  0.72942442    -0.18500
C3738       C  0.09423542  0.60137849  0.72365658     0.09800
S3739       S  0.06041075  0.53086564  0.66811464    -0.33500
S3740       S  0.10730568  0.62786174  0.74656886    -0.33500
H3741       H  0.13539622  0.62357098  0.74079384     0.27900
H3742       H  0.03223306  0.53550566  0.67321748     0.27800
H3743       H  0.10963246  0.56264128  0.66664767     0.18400
H3744       H  0.05755664  0.59681431  0.74758971     0.18400
C3745       C  0.09749169  0.60821419  0.82774012    -0.07400
C3746       C  0.06856665  0.60954035  0.82609318    -0.18500
C3747       C  0.05297661  0.58853526  0.81348182     0.09800
C3748       C  0.06655410  0.56489523  0.80263371    -0.07300
C3749       C  0.09562301  0.56350669  0.80477397    -0.18500
C3750       C  0.11116678  0.58485032  0.81697434     0.09800
S3751       S  0.01609946  0.59337991  0.81072796    -0.33500
S3752       S  0.14827224  0.58163796  0.81920425    -0.33500
H3753       H  0.15022455  0.55458638  0.80853949     0.27900
H3754       H  0.01390035  0.61631859  0.82859033     0.27800
H3755       H  0.05812445  0.62772328  0.83401714     0.18400
H3756       H  0.10642507  0.54579431  0.79634465     0.18400
C3757       C  0.92251015  0.69602417  0.45885899    -0.07400
C3758       C  0.93124109  0.67235113  0.44406229    -0.18500
C3759       C  0.91311206  0.65755743  0.42651792     0.09800
C3760       C  0.88565056  0.66677345  0.42301988    -0.07300
C3761       C  0.87662248  0.68964381  0.43838318    -0.18500
C3762       C  0.89440231  0.70436040  0.45610175     0.09800
S3763       S  0.92621489  0.62717792  0.40925978    -0.33500
S3764       S  0.88004686  0.73317596  0.47539056    -0.33500
H3765       H  0.85455853  0.73477020  0.46138379     0.27900
H3766       H  0.90092205  0.61309717  0.40750649     0.27800
H3767       H  0.95247961  0.66548850  0.44578199     0.18400
H3768       H  0.85524324  0.69597194  0.43648255     0.18400
C3769       C  0.92142006  0.82328783  0.38413239    -0.07400
C3770       C  0.92408871  0.79447752  0.38416110    -0.18500
C3771       C  0.93620660  0.78024242  0.40616431     0.09800
C3772       C  0.94743966  0.79525734  0.42903096    -0.07300
C3773       C  0.94396480  0.82426298  0.42948010    -0.18500
C3774       C  0.93076312  0.83835167  0.40742806     0.09800
S3775       S  0.93545684  0.74274145  0.40451466    -0.33500
S3776       S  0.92721950  0.87542206  0.40859987    -0.33500
H3777       H  0.93532551  0.87874920  0.43636513     0.27900
H3778       H  0.92446207  0.73969701  0.37772226     0.27800
H3779       H  0.91591212  0.78286660  0.36676060     0.18400
H3780       H  0.95195210  0.83593133  0.44690822     0.18400
C3781       C  0.92041876  0.69802305  0.55056326    -0.07400
C3782       C  0.90041244  0.68688774  0.53283006    -0.18500
C3783       C  0.87845719  0.67126736  0.54273851     0.09800
C3784       C  0.87619118  0.66681826  0.57141439    -0.07300
C3785       C  0.89712969  0.67666414  0.58914532    -0.18500
C3786       C  0.91911092  0.69240602  0.57904249     0.09800
S3787       S  0.85421697  0.65737805  0.51786258    -0.33500
S3788       S  0.94451415  0.70662142  0.60261990    -0.33500
H3789       H  0.93298248  0.69617621  0.62696512     0.27900
H3790       H  0.84777069  0.63363345  0.53313048     0.27800
H3791       H  0.90191158  0.69045942  0.51052453     0.18400
H3792       H  0.89538715  0.67335585  0.61119195     0.18400
C3793       C  0.95548479  0.80595912  0.58153144    -0.07400
C3794       C  0.96425901  0.79958958  0.60840585    -0.18500
C3795       C  0.95291071  0.81252523  0.63153830     0.09800
C3796       C  0.93122014  0.83174338  0.62805286    -0.07300
C3797       C  0.92431999  0.84043195  0.60118269    -0.18500
C3798       C  0.93635323  0.82784684  0.57781792     0.09800
S3799       S  0.96565172  0.80328125  0.66543422    -0.33500
S3800       S  0.92473638  0.83794845  0.54382485    -0.33500
H3801       H  0.90901370  0.86099147  0.55220039     0.27900
H3802       H  0.98494575  0.78330909  0.65713357     0.27800
H3803       H  0.97898235  0.78335913  0.61132495     0.18400
H3804       H  0.90784953  0.85533130  0.59841830     0.18400
C3805       C  0.07170195  0.69986377  0.45952638    -0.07400
C3806       C  0.07093625  0.67082091  0.45729674    -0.18500
C3807       C  0.09212425  0.65582541  0.44399235     0.09800
C3808       C  0.11530222  0.67010216  0.43343996    -0.07300
C3809       C  0.11479585  0.69908866  0.43404065    -0.18500
C3810       C  0.09332552  0.71408282  0.44603576     0.09800
S3811       S  0.08779109  0.61890909  0.44115495    -0.33500
S3812       S  0.09427194  0.75141244  0.44281374    -0.33500
H3813       H  0.11205104  0.75244203  0.42003345     0.27900
H3814       H  0.11581628  0.61196695  0.44326181     0.27800
H3815       H  0.05394780  0.65964535  0.46635521     0.18400
H3816       H  0.13133047  0.71035866  0.42443034     0.18400
C3817       C  0.03759679  0.80030108  0.43248087    -0.07400
C3818       C  0.05590625  0.82223051  0.43773409    -0.18500
C3819       C  0.07041064  0.83503069  0.41617564     0.09800
C3820       C  0.06685204  0.82529705  0.38863091    -0.07300
C3821       C  0.04703912  0.80485249  0.38343111    -0.18500
C3822       C  0.03226678  0.79255764  0.40465574     0.09800
S3823       S  0.09318025  0.86351446  0.42451128    -0.33500
S3824       S  0.00727741  0.76639687  0.39518364    -0.33500
H3825       H  0.00495294  0.77310564  0.36705053     0.27900
H3826       H  0.08665900  0.86567261  0.45267706     0.27800
H3827       H  0.05981846  0.82848015  0.45888864     0.18400
H3828       H  0.04355987  0.79767939  0.36249370     0.18400
C3829       C  0.10237749  0.65709992  0.58606481    -0.07400
C3830       C  0.11078106  0.66860056  0.56087614    -0.18500
C3831       C  0.09367503  0.68705024  0.54605687     0.09800
C3832       C  0.06679910  0.69296054  0.55561625    -0.07300
C3833       C  0.05770373  0.67965590  0.57964713    -0.18500
C3834       C  0.07516186  0.66220663  0.59503207     0.09800
S3835       S  0.10755453  0.70485626  0.51675817    -0.33500
S3836       S  0.06158499  0.64723953  0.62607233    -0.33500
H3837       H  0.07820072  0.62333029  0.62536080     0.27900
H3838       H  0.13170778  0.68885751  0.51417589     0.27800
H3839       H  0.13178431  0.66521108  0.55414571     0.18400
H3840       H  0.03704968  0.68370098  0.58712251     0.18400
C3841       C  0.06079493  0.83696102  0.62978494    -0.07400
C3842       C  0.04719201  0.81199260  0.63566629    -0.18500
C3843       C  0.03755957  0.79406138  0.61487395     0.09800
C3844       C  0.03735132  0.80280041  0.58689279    -0.07300
C3845       C  0.04792138  0.82939917  0.58124704    -0.18500
C3846       C  0.06010727  0.84614976  0.60207719     0.09800
S3847       S  0.02868733  0.75911743  0.62494863    -0.33500
S3848       S  0.07615482  0.87784519  0.59156662    -0.33500
H3849       H  0.06568052  0.89328423  0.61387167     0.27900
H3850       H  0.03470317  0.76142426  0.65330854     0.27800
H3851       H  0.04679982  0.80495606  0.65681673     0.18400
H3852       H  0.04810944  0.83667145  0.56015424     0.18400
C3853       C  0.69537704  0.44131120  0.93103955    -0.07400
C3854       C  0.67479584  0.42364422  0.94134159    -0.18500
C3855       C  0.66171259  0.40388923  0.92434785     0.09800
C3856       C  0.66883543  0.40208036  0.89627207    -0.07300
C3857       C  0.68884944  0.41983201  0.88585340    -0.18500
C3858       C  0.70235697  0.43917642  0.90261284     0.09800
S3859       S  0.63555930  0.38239905  0.93939441    -0.33500
S3860       S  0.72841216  0.46045208  0.88661556    -0.33500
H3861       H  0.72283482  0.45324657  0.85896177     0.27900
H3862       H  0.63919754  0.35960598  0.92167315     0.27800
H3863       H  0.66933930  0.42464338  0.96296108     0.18400
H3864       H  0.69382733  0.41853706  0.86414143     0.18400
C3865       C  0.79538039  0.42296268  0.95350741    -0.07400
C3866       C  0.77954714  0.40052697  0.94372881    -0.18500
C3867       C  0.79072460  0.38028685  0.92668071     0.09800
C3868       C  0.81877777  0.38162792  0.91963297    -0.07300
C3869       C  0.83490035  0.40376272  0.92948162    -0.18500
C3870       C  0.82361587  0.42436121  0.94647421     0.09800
S3871       S  0.76748118  0.35462081  0.91281371    -0.33500
S3872       S  0.84654148  0.45120585  0.95864325    -0.33500
H3873       H  0.83462156  0.45415834  0.98481406     0.27900
H3874       H  0.77827638  0.35633641  0.88606342     0.27800
H3875       H  0.75770698  0.39930013  0.94819629     0.18400
H3876       H  0.85661954  0.40468389  0.92441051     0.18400
C3877       C  0.68663716  0.53975559  0.92965851    -0.07400
C3878       C  0.69010487  0.52944799  0.90269412    -0.18500
C3879       C  0.67919963  0.54292782  0.87948165     0.09800
C3880       C  0.66379729  0.56756743  0.88279812    -0.07300
C3881       C  0.65788202  0.57652004  0.90986688    -0.18500
C3882       C  0.66882642  0.56280539  0.93323035     0.09800
S3883       S  0.68658257  0.52893944  0.84568776    -0.33500
S3884       S  0.66139515  0.57723523  0.96666070    -0.33500
H3885       H  0.65501063  0.55148545  0.97832124     0.27900
H3886       H  0.69324669  0.50206472  0.85448690     0.27800
H3887       H  0.70330372  0.51162085  0.89954443     0.18400
H3888       H  0.64607663  0.59534988  0.91285770     0.18400
C3889       C  0.82429421  0.60868615  0.91476817    -0.07400
C3890       C  0.79545898  0.60777348  0.91200408    -0.18500
C3891       C  0.77949806  0.58988318  0.92785630     0.09800
C3892       C  0.79264900  0.57213872  0.94702344    -0.07300
C3893       C  0.82160634  0.57237815  0.94918961    -0.18500
C3894       C  0.83751586  0.59044652  0.93332702     0.09800
S3895       S  0.74247715  0.58974728  0.92266580    -0.33500
S3896       S  0.87449632  0.58863452  0.93696184    -0.33500
H3897       H  0.87996475  0.59557765  0.90940544     0.27900
H3898       H  0.74210174  0.60479140  0.89792196     0.27800
H3899       H  0.78525370  0.62191919  0.89795660     0.18400
H3900       H  0.83191414  0.55839245  0.96333258     0.18400
C3901       C  0.70083318  0.45825797  0.07820130    -0.07400
C3902       C  0.70709918  0.42996839  0.07962275    -0.18500
C3903       C  0.69172615  0.41175091  0.09592771     0.09800
C3904       C  0.66960406  0.42198002  0.11209795    -0.07300
C3905       C  0.66386466  0.45052176  0.11144812    -0.18500
C3906       C  0.67853544  0.46851100  0.09406136     0.09800
S3907       S  0.70174351  0.37567182  0.09677912    -0.33500
S3908       S  0.66739414  0.50403745  0.09302376    -0.33500
H3909       H  0.67724477  0.50999053  0.06658482     0.27900
H3910       H  0.72120935  0.37659426  0.07543776     0.27800
H3911       H  0.72393895  0.42198757  0.06733233     0.18400
H3912       H  0.64726261  0.45874508  0.12393608     0.18400
C3913       C  0.80803972  0.43951458  0.04505428    -0.07400
C3914       C  0.81682044  0.41794529  0.02786821    -0.18500
C3915       C  0.83380988  0.39676112  0.03760122     0.09800
C3916       C  0.84080460  0.39575670  0.06581392    -0.07300
C3917       C  0.83352688  0.41825442  0.08284494    -0.18500
C3918       C  0.81737452  0.44026343  0.07268796     0.09800
S3919       S  0.84610877  0.37183358  0.01308060    -0.33500
S3920       S  0.80625747  0.46754577  0.09567574    -0.33500
H3921       H  0.82227556  0.45932063  0.11856165     0.27900
H3922       H  0.86946954  0.36420827  0.02871302     0.27800
H3923       H  0.80968030  0.41704967  0.00636748     0.18400
H3924       H  0.83861185  0.41747171  0.10467356     0.18400
C3925       C  0.66142133  0.58791486  0.10371701    -0.07400
C3926       C  0.68508372  0.57268220  0.10998915    -0.18500
C3927       C  0.70325171  0.56418138  0.08959902     0.09800
C3928       C  0.69671877  0.56921123  0.06150242    -0.07300
C3929       C  0.67257302  0.58396863  0.05493670    -0.18500
C3930       C  0.65505493  0.59368069  0.07583913     0.09800
S3931       S  0.73586176  0.54956851  0.10069450    -0.33500
S3932       S  0.62501542  0.61315615  0.06579659    -0.33500
H3933       H  0.61027481  0.60731331  0.08984959     0.27900
H3934       H  0.72863463  0.54394909  0.12814138     0.27800
H3935       H  0.69086343  0.56978580  0.13133123     0.18400
H3936       H  0.66727238  0.58783002  0.03354073     0.18400
C3937       C  0.83621533  0.61934061  0.07244714    -0.07400
C3938       C  0.81419155  0.62356093  0.05393019    -0.18500
C3939       C  0.79742463  0.60166001  0.04433122     0.09800
C3940       C  0.80178464  0.57425866  0.05418509    -0.07300
C3941       C  0.82443067  0.56984676  0.07203728    -0.18500
C3942       C  0.84193027  0.59170016  0.08058216     0.09800
S3943       S  0.76925897  0.61015210  0.02115943    -0.33500
S3944       S  0.87009773  0.58312267  0.10341978    -0.33500
H3945       H  0.88978647  0.59690932  0.08739357     0.27900
H3946       H  0.77879919  0.63643656  0.01348796     0.27800
H3947       H  0.80933216  0.64453598  0.04781028     0.18400
H3948       H  0.82862771  0.54913765  0.07942108     0.18400
C3949       C  0.42947548  0.94297649  0.67899554    -0.07400
C3950       C  0.44554900  0.92145328  0.66768290    -0.18500
C3951       C  0.43342990  0.89831189  0.65501883     0.09800
C3952       C  0.40430777  0.89649719  0.65378505    -0.07300
C3953       C  0.38850266  0.91950282  0.66208252    -0.18500
C3954       C  0.40062065  0.94267312  0.67433330     0.09800
S3955       S  0.45572208  0.87099456  0.64238156    -0.33500
S3956       S  0.37757883  0.96997593  0.68498866    -0.33500
H3957       H  0.39330478  0.99083884  0.67254798     0.27900
H3958       H  0.48039169  0.88621849  0.64289854     0.27800
H3959       H  0.46775355  0.92193506  0.67013124     0.18400
H3960       H  0.36620556  0.91906510  0.66021812     0.18400
C3961       C  0.43770306  0.92928515  0.78005236    -0.07400
C3962       C  0.41006415  0.93775031  0.77782118    -0.18500
C3963       C  0.38875281  0.92327724  0.79075703     0.09800
C3964       C  0.39475240  0.89916494  0.80623135    -0.07300
C3965       C  0.42230585  0.89038951  0.80841700    -0.18500
C3966       C  0.44379928  0.90537669  0.79597538     0.09800
S3967       S  0.35371602  0.93580789  0.78693888    -0.33500
S3968       S  0.47859579  0.89400947  0.80292463    -0.33500
H3969       H  0.48932956  0.92090094  0.80576117     0.27900
H3970       H  0.35961239  0.95942366  0.77126440     0.27800
H3971       H  0.40503391  0.95567087  0.76545483     0.18400
H3972       H  0.42729063  0.87266846  0.82112513     0.18400
C3973       C  0.53713348  0.92626499  0.67467811    -0.07400
C3974       C  0.52712202  0.89952190  0.67922534    -0.18500
C3975       C  0.54031707  0.87624043  0.66832818     0.09800
C3976       C  0.56425802  0.87970483  0.65219150    -0.07300
C3977       C  0.57323856  0.90645874  0.64593681    -0.18500
C3978       C  0.55979169  0.92988351  0.65679125     0.09800
S3979       S  0.52799171  0.84233581  0.67803105    -0.33500
S3980       S  0.57332460  0.96381836  0.64946722    -0.33500
H3981       H  0.59491554  0.95515938  0.63217131     0.27900
H3982       H  0.50474811  0.85109392  0.69296559     0.27800
H3983       H  0.50970442  0.89679803  0.69278990     0.18400
H3984       H  0.59144153  0.90887288  0.63338000     0.18400
C3985       C  0.56976811  0.95435854  0.78301197    -0.07400
C3986       C  0.59509536  0.94637956  0.77120615    -0.18500
C3987       C  0.61567017  0.93267744  0.78632582     0.09800
C3988       C  0.61134471  0.92687509  0.81452324    -0.07300
C3989       C  0.58673097  0.93614804  0.82686952    -0.18500
C3990       C  0.56626865  0.95026266  0.81166934     0.09800
S3991       S  0.64598386  0.92045168  0.76824577    -0.33500
S3992       S  0.53660108  0.96271904  0.83017531    -0.33500
H3993       H  0.53612524  0.98850410  0.81686950     0.27900
H3994       H  0.63881051  0.92997762  0.74177314     0.27800
H3995       H  0.59848668  0.94976887  0.74946412     0.18400
H3996       H  0.58330037  0.93215807  0.84855117     0.18400
C3997       C  0.45207043  0.07048749  0.68077260    -0.07400
C3998       C  0.42626192  0.06407454  0.66902804    -0.18500
C3999       C  0.40961560  0.08470112  0.65689778     0.09800
C4000       C  0.41938192  0.11239547  0.65594084    -0.07300
C4001       C  0.44583472  0.11816845  0.66616387    -0.18500
C4002       C  0.46210404  0.09781060  0.67860143     0.09800
S4003       S  0.37566162  0.07532850  0.64408834    -0.33500
S4004       S  0.49497735  0.10797496  0.69302090    -0.33500
H4005       H  0.49783371  0.13245529  0.67775588     0.27900
H4006       H  0.37790158  0.04666041  0.64838751     0.27800
H4007       H  0.41836989  0.04327164  0.67107484     0.18400
H4008       H  0.45310792  0.13930964  0.66640300     0.18400
C4009       C  0.38207592  0.07382284  0.81419319    -0.07400
C4010       C  0.40988232  0.07769516  0.82235094    -0.18500
C4011       C  0.43191899  0.06435071  0.80885273     0.09800
C4012       C  0.42655108  0.04597013  0.78658289    -0.07300
C4013       C  0.39873650  0.04128029  0.77916231    -0.18500
C4014       C  0.37666318  0.05484418  0.79241570     0.09800
S4015       S  0.46632391  0.07266803  0.82050949    -0.33500
S4016       S  0.34183922  0.04721307  0.78112455    -0.33500
H4017       H  0.34857639  0.02983666  0.75877288     0.27900
H4018       H  0.47530909  0.08056419  0.79416240     0.27800
H4019       H  0.41474041  0.09205333  0.83892500     0.18400
H4020       H  0.39418884  0.02697617  0.76248288     0.18400
C4021       C  0.59855564  0.10759753  0.66260242    -0.07400
C4022       C  0.57679403  0.09724481  0.64605271    -0.18500
C4023       C  0.55678753  0.07934535  0.65667654     0.09800
C4024       C  0.55780765  0.07237074  0.68493590    -0.07300
C4025       C  0.58037597  0.08140514  0.70097060    -0.18500
C4026       C  0.60120588  0.09778274  0.68988328     0.09800
S4027       S  0.53015893  0.06737834  0.63327714    -0.33500
S4028       S  0.63025738  0.10549610  0.71185289    -0.33500
H4029       H  0.64984106  0.09958918  0.69135605     0.27900
H4030       H  0.50963374  0.06312391  0.65302401     0.27800
H4031       H  0.57470025  0.10406572  0.62487134     0.18400
H4032       H  0.58221468  0.07506259  0.72232110     0.18400
C4033       C  0.58074845  0.04138095  0.78287630    -0.07400
C4034       C  0.60725089  0.04137714  0.77101722    -0.18500
C4035       C  0.62995060  0.05388898  0.78404086     0.09800
C4036       C  0.62697855  0.06599752  0.81048821    -0.07300
C4037       C  0.60076407  0.06484125  0.82295404    -0.18500
C4038       C  0.57771351  0.05311954  0.80953913     0.09800
S4039       S  0.66160533  0.05473188  0.76492185    -0.33500
S4040       S  0.54484580  0.05399214  0.82699857    -0.33500
H4041       H  0.55199549  0.07370755  0.84727326     0.27900
H4042       H  0.66236741  0.08384224  0.76459283     0.27800
H4043       H  0.61028041  0.03259340  0.75064015     0.18400
H4044       H  0.59801111  0.07381529  0.84325446     0.18400
C4045       C  0.29992662  0.56124067  0.93530406    -0.07400
C4046       C  0.31684150  0.58395702  0.94162455    -0.18500
C4047       C  0.33383003  0.59590958  0.92168557     0.09800
C4048       C  0.33398679  0.58480435  0.89459813    -0.07300
C4049       C  0.31752062  0.56168757  0.88848399    -0.18500
C4050       C  0.30048107  0.54987710  0.90822846     0.09800
S4051       S  0.35393417  0.62602408  0.93111211    -0.33500
S4052       S  0.27833466  0.52179758  0.89710316    -0.33500
H4053       H  0.29447215  0.51309578  0.87466933     0.27900
H4054       H  0.34713211  0.62675185  0.95926104     0.27800
H4055       H  0.31659729  0.59251787  0.96231754     0.18400
H4056       H  0.31732515  0.55318499  0.86775728     0.18400
C4057       C  0.19453892  0.55239208  0.93782531    -0.07400
C4058       C  0.18156575  0.57095566  0.95608844    -0.18500
C4059       C  0.16662589  0.59390039  0.94656013     0.09800
C4060       C  0.16502343  0.59950985  0.91800970    -0.07300
C4061       C  0.17531719  0.57928099  0.89965852    -0.18500
C4062       C  0.18988641  0.55582080  0.90912674     0.09800
S4063       S  0.14976741  0.61511309  0.97181583    -0.33500
S4064       S  0.20410577  0.53197012  0.88408417    -0.33500
H4065       H  0.19620090  0.54651430  0.86023007     0.27900
H4066       H  0.12656519  0.61861573  0.95462019     0.27800
H4067       H  0.18360346  0.56797496  0.97815027     0.18400
H4068       H  0.17384082  0.58291264  0.87769713     0.18400
C4069       C  0.30661871  0.45651720  0.92340864    -0.07400
C4070       C  0.29193597  0.44715765  0.90013032    -0.18500
C4071       C  0.30496854  0.43409500  0.87797531     0.09800
C4072       C  0.33396339  0.42926917  0.87910546    -0.07300
C4073       C  0.34884486  0.43904731  0.90217942    -0.18500
C4074       C  0.33570241  0.45322055  0.92384050     0.09800
S4075       S  0.28317119  0.42261594  0.84955485    -0.33500
S4076       S  0.35739427  0.46724067  0.95078555    -0.33500
H4077       H  0.34307381  0.49259924  0.95205560     0.27900
H4078       H  0.25936749  0.43779047  0.85645210     0.27800
H4079       H  0.26970685  0.44931494  0.89954931     0.18400
H4080       H  0.37098630  0.43596152  0.90321072     0.18400
C4081       C  0.17193296  0.37805317  0.93802761    -0.07400
C4082       C  0.19348021  0.37162728  0.95653280    -0.18500
C4083       C  0.20974850  0.39221429  0.96906473     0.09800
C4084       C  0.20403251  0.42053461  0.96384472    -0.07300
C4085       C  0.18046436  0.42703396  0.94798649    -0.18500
C4086       C  0.16435370  0.40630458  0.93524237     0.09800
S4087       S  0.23868275  0.38126924  0.99015901    -0.33500
S4088       S  0.13560936  0.41764505  0.91440998    -0.33500
H4089       H  0.11730405  0.39820765  0.92554211     0.27900
H4090       H  0.23015220  0.35377561  0.99394241     0.27800
H4091       H  0.19912368  0.35016167  0.95951468     0.18400
H4092       H  0.17525732  0.44851249  0.94429383     0.18400
C4093       C  0.31832780  0.45530331  0.07431755    -0.07400
C4094       C  0.31430788  0.46247167  0.10211859    -0.18500
C4095       C  0.32802468  0.44866554  0.12342866     0.09800
C4096       C  0.34619108  0.42677863  0.11692563    -0.07300
C4097       C  0.35142191  0.42035056  0.08920947    -0.18500
C4098       C  0.33786140  0.43443752  0.06773926     0.09800
S4099       S  0.31963266  0.45734818  0.15876325    -0.33500
S4100       S  0.34375143  0.42340033  0.03252689    -0.33500
H4101       H  0.36165848  0.40123140  0.03847425     0.27900
H4102       H  0.29453614  0.47090117  0.15300540     0.27800
H4103       H  0.29902101  0.47784726  0.10736280     0.18400
H4104       H  0.36522152  0.40333094  0.08451124     0.18400
C4105       C  0.21519214  0.41616114  0.04807852    -0.07400
C4106       C  0.23065620  0.39413417  0.05897700    -0.18500
C4107       C  0.21786933  0.37136437  0.07052918     0.09800
C4108       C  0.18885279  0.37112173  0.07222198    -0.07300
C4109       C  0.17323322  0.39274300  0.06091416    -0.18500
C4110       C  0.18607870  0.41504162  0.04815551     0.09800
S4111       S  0.23910797  0.34343739  0.08365455    -0.33500
S4112       S  0.16505344  0.44105663  0.03139635    -0.33500
H4113       H  0.13960065  0.42747026  0.03409486     0.27900
H4114       H  0.26465377  0.35708593  0.08232447     0.27800
H4115       H  0.25297629  0.39478614  0.05858820     0.18400
H4116       H  0.15092851  0.39196849  0.06195464     0.18400
C4117       C  0.34420586  0.56846147  0.11081165    -0.07400
C4118       C  0.34931657  0.57497998  0.08293400    -0.18500
C4119       C  0.33384710  0.56304093  0.06112682     0.09800
C4120       C  0.31269550  0.54405579  0.06727554    -0.07300
C4121       C  0.30866502  0.53676731  0.09500443    -0.18500
C4122       C  0.32399819  0.54833560  0.11666330     0.09800
S4123       S  0.33964750  0.57425632  0.02616478    -0.33500
S4124       S  0.31516802  0.53878195  0.15163054    -0.33500
H4125       H  0.29266580  0.52154493  0.14532526     0.27900
H4126       H  0.36172461  0.59223033  0.03205318     0.27800
H4127       H  0.36448625  0.59063088  0.07833196     0.18400
H4128       H  0.29215752  0.52278930  0.09999328     0.18400
C4129       C  0.17409270  0.61176043  0.07289125    -0.07400
C4130       C  0.17250583  0.58484767  0.08352182    -0.18500
C4131       C  0.18538330  0.56244187  0.07015601     0.09800
C4132       C  0.20036039  0.56695218  0.04558065    -0.07300
C4133       C  0.19985425  0.59333150  0.03384976    -0.18500
C4134       C  0.18638509  0.61543126  0.04663821     0.09800
S4135       S  0.18385984  0.52929805  0.08682892    -0.33500
S4136       S  0.18612065  0.64773123  0.02814229    -0.33500
H4137       H  0.15879678  0.65427636  0.03535103     0.27900
H4138       H  0.21256192  0.52489587  0.08608129     0.27800
H4139       H  0.16281299  0.58148082  0.10328699     0.18400
H4140       H  0.21044173  0.59691121  0.01457584     0.18400
C4141       C  0.43722744  0.31575111  0.88512786    -0.07400
C4142       C  0.43043808  0.32415989  0.91223385    -0.18500
C4143       C  0.44136369  0.31084156  0.93581671     0.09800
C4144       C  0.45967270  0.28814731  0.93259534    -0.07300
C4145       C  0.46691083  0.28018477  0.90561512    -0.18500
C4146       C  0.45613952  0.29349439  0.88208617     0.09800
S4147       S  0.43053391  0.32242631  0.96963230    -0.33500
S4148       S  0.46734008  0.28161935  0.84853346    -0.33500
H4149       H  0.48303459  0.25878560  0.85741896     0.27900
H4150       H  0.41590525  0.34605796  0.96102455     0.27800
H4151       H  0.41587393  0.34092297  0.91503540     0.18400
H4152       H  0.48125757  0.26320754  0.90290313     0.18400
C4153       C  0.43718843  0.18142485  0.96152554    -0.07400
C4154       C  0.41724669  0.16662946  0.97612386    -0.18500
C4155       C  0.39468369  0.15452201  0.96241588     0.09800
C4156       C  0.39205823  0.15759562  0.93363918    -0.07300
C4157       C  0.41348349  0.16996240  0.91887026    -0.18500
C4158       C  0.43601391  0.18191956  0.93249352     0.09800
S4159       S  0.37031840  0.13534471  0.98251799    -0.33500
S4160       S  0.46222012  0.19918258  0.91271016    -0.33500
H4161       H  0.44917538  0.19684914  0.88676242     0.27900
H4162       H  0.36009788  0.11903160  0.96061157     0.27800
H4163       H  0.41877659  0.16528681  0.99833001     0.18400
H4164       H  0.41172249  0.17163341  0.89664468     0.18400
C4165       C  0.58655890  0.30170862  0.89572012    -0.07400
C4166       C  0.56202929  0.31282781  0.90626445    -0.18500
C4167       C  0.55241858  0.30501824  0.93219289     0.09800
C4168       C  0.56713596  0.28502792  0.94758352    -0.07300
C4169       C  0.59183424  0.27426334  0.93730987    -0.18500
C4170       C  0.60171370  0.28227844  0.91155793     0.09800
S4171       S  0.52193465  0.32209906  0.94505820    -0.33500
S4172       S  0.63317328  0.26669040  0.89887437    -0.33500
H4173       H  0.63622060  0.24665927  0.91958421     0.27900
H4174       H  0.52779283  0.31783080  0.97320034     0.27800
H4175       H  0.55094929  0.32859980  0.89481421     0.18400
H4176       H  0.60272748  0.25855704  0.94895311     0.18400
C4177       C  0.56771653  0.18768056  0.94720801    -0.07400
C4178       C  0.59422450  0.19572728  0.95587448    -0.18500
C4179       C  0.61817571  0.18338579  0.94546260     0.09800
C4180       C  0.61598212  0.16142408  0.92601347    -0.07300
C4181       C  0.58930210  0.15295417  0.91758294    -0.18500
C4182       C  0.56529258  0.16579095  0.92787680     0.09800
S4183       S  0.65117273  0.19680500  0.95713915    -0.33500
S4184       S  0.53240059  0.15306459  0.91582440    -0.33500
H4185       H  0.51895366  0.15663442  0.94122332     0.27900
H4186       H  0.64121476  0.21901349  0.97312316     0.27800
H4187       H  0.59623671  0.21261193  0.97050376     0.18400
H4188       H  0.58705267  0.13667040  0.90228193     0.18400
C4189       C  0.56680063  0.33108471  0.12178998    -0.07400
C4190       C  0.57731997  0.33143777  0.09476422    -0.18500
C4191       C  0.56636760  0.31420377  0.07351970     0.09800
C4192       C  0.54404999  0.29616489  0.07910442    -0.07300
C4193       C  0.53279507  0.29687666  0.10572640    -0.18500
C4194       C  0.54358171  0.31405120  0.12669113     0.09800
S4195       S  0.58289124  0.31348198  0.04025180    -0.33500
S4196       S  0.52665779  0.31337806  0.15951813    -0.33500
H4197       H  0.53093036  0.34172401  0.16382660     0.27900
H4198       H  0.60497072  0.33110044  0.04714850     0.27800
H4199       H  0.59540022  0.34383712  0.09078549     0.18400
H4200       H  0.51546956  0.28363118  0.11040803     0.18400
C4201       C  0.57486216  0.18681235  0.05342640    -0.07400
C4202       C  0.59877371  0.18424230  0.03763993    -0.18500
C4203       C  0.62404037  0.17753820  0.04990979     0.09800
C4204       C  0.62540693  0.17350181  0.07873886    -0.07300
C4205       C  0.60091926  0.17373989  0.09406547    -0.18500
C4206       C  0.57567005  0.18024708  0.08170076     0.09800
S4207       S  0.65399498  0.17547032  0.02820442    -0.33500
S4208       S  0.54601911  0.18341856  0.10369264    -0.33500
H4209       H  0.52836486  0.16892362  0.08559471     0.27900
H4210       H  0.63932392  0.16476936  0.00537480     0.27800
H4211       H  0.59806496  0.18942998  0.01593496     0.18400
H4212       H  0.60156462  0.17019493  0.11611984     0.18400
C4213       C  0.45397358  0.28882664  0.08670806    -0.07400
C4214       C  0.44412657  0.27396124  0.10957890    -0.18500
C4215       C  0.42673994  0.28608937  0.12873898     0.09800
C4216       C  0.41961711  0.31402453  0.12574926    -0.07300
C4217       C  0.43104850  0.32965068  0.10433000    -0.18500
C4218       C  0.44859167  0.31742683  0.08500551     0.09800
S4219       S  0.41199643  0.26404937  0.15462979    -0.33500
S4220       S  0.46355371  0.33930000  0.05918252    -0.33500
H4221       H  0.48904821  0.32526502  0.05888059     0.27900
H4222       H  0.38496521  0.27408116  0.15096812     0.27800
H4223       H  0.44817050  0.25201734  0.11165615     0.18400
H4224       H  0.42608986  0.35145385  0.10256530     0.18400
C4225       C  0.42074427  0.18718273  0.05217362    -0.07400
C4226       C  0.42393971  0.16708273  0.07280626    -0.18500
C4227       C  0.40088451  0.15526408  0.08569791     0.09800
C4228       C  0.37390590  0.16430818  0.07844732    -0.07300
C4229       C  0.37095605  0.18236821  0.05602834    -0.18500
C4230       C  0.39368434  0.19370880  0.04280090     0.09800
S4231       S  0.40750027  0.12922365  0.11128733    -0.33500
S4232       S  0.38715429  0.21720852  0.01445246    -0.33500
H4233       H  0.35910694  0.21095942  0.01038801     0.27900
H4234       H  0.38681573  0.11135296  0.10120883     0.27800
H4235       H  0.44447400  0.16134341  0.07974486     0.18400
H4236       H  0.35056500  0.18883814  0.04945030     0.18400
C4237       C  0.89036738  0.32744718  0.58533168    -0.07400
C4238       C  0.90838444  0.31492403  0.60435738    -0.18500
C4239       C  0.93238190  0.30126138  0.59559396     0.09800
C4240       C  0.93869822  0.30087283  0.56714933    -0.07300
C4241       C  0.92180878  0.31584967  0.54865118    -0.18500
C4242       C  0.89757428  0.32883752  0.55740431     0.09800
S4243       S  0.95293237  0.28244978  0.62057566    -0.33500
S4244       S  0.87567740  0.34663278  0.53284325    -0.33500
H4245       H  0.89396074  0.34519650  0.51048174     0.27900
H4246       H  0.93626072  0.28775549  0.64365457     0.27800
H4247       H  0.90256238  0.31419961  0.62587139     0.18400
H4248       H  0.92686191  0.31622075  0.52693530     0.18400
C4249       C  0.91773630  0.16643294  0.60652081    -0.07400
C4250       C  0.90807735  0.16242686  0.57918390    -0.18500
C4251       C  0.91922626  0.17667972  0.55685600     0.09800
C4252       C  0.94057177  0.19587835  0.56155156    -0.07300
C4253       C  0.95167207  0.19840998  0.58849196    -0.18500
C4254       C  0.94052881  0.18409034  0.61097260     0.09800
S4255       S  0.90537824  0.16921324  0.52299813    -0.33500
S4256       S  0.95470530  0.19005484  0.64511722    -0.33500
H4257       H  0.97158926  0.21255772  0.63829377     0.27900
H4258       H  0.93107836  0.17049360  0.50975932     0.27800
H4259       H  0.89105993  0.14845818  0.57509691     0.18400
H4260       H  0.96845286  0.21270235  0.59224222     0.18400
C4261       C  0.92185212  0.30642086  0.46164727    -0.07400
C4262       C  0.89466978  0.29930186  0.46873461    -0.18500
C4263       C  0.87149697  0.31333816  0.45769311     0.09800
C4264       C  0.87511467  0.33524041  0.43867119    -0.07300
C4265       C  0.90224030  0.34376728  0.43325563    -0.18500
C4266       C  0.92537703  0.32960349  0.44408525     0.09800
S4267       S  0.83734797  0.30307704  0.46832395    -0.33500
S4268       S  0.95864883  0.34084761  0.43241556    -0.33500
H4269       H  0.96659617  0.31433057  0.42324468     0.27900
H4270       H  0.84550929  0.28142680  0.48587168     0.27800
H4271       H  0.89153222  0.28226945  0.48273449     0.18400
H4272       H  0.90558320  0.36028284  0.41866136     0.18400
C4273       C  0.93057232  0.16885962  0.38666993    -0.07400
C4274       C  0.95345081  0.18529341  0.38051882    -0.18500
C4275       C  0.96621690  0.20201612  0.40044463     0.09800
C4276       C  0.95824702  0.20009128  0.42843208    -0.07300
C4277       C  0.93690225  0.18191984  0.43526643    -0.18500
C4278       C  0.92203784  0.16739836  0.41469993     0.09800
S4279       S  0.99082166  0.22728827  0.38875879    -0.33500
S4280       S  0.89068745  0.15015730  0.42463640    -0.33500
H4281       H  0.89118669  0.15747286  0.45280020     0.27900
H4282       H  0.99285006  0.21820325  0.36122328     0.27800
H4283       H  0.95996459  0.18689679  0.35927661     0.18400
H4284       H  0.93027614  0.18106703  0.45651250     0.18400
C4285       C  0.11987523  0.33105157  0.42909393    -0.07400
C4286       C  0.09352533  0.33371752  0.41713712    -0.18500
C4287       C  0.07005812  0.32505770  0.43122282     0.09800
C4288       C  0.07318931  0.31250952  0.45730035    -0.07300
C4289       C  0.09908917  0.31256650  0.47028531    -0.18500
C4290       C  0.12231227  0.32266626  0.45693046     0.09800
S4291       S  0.03738973  0.32708405  0.41339728    -0.33500
S4292       S  0.15472890  0.32391383  0.47568975    -0.33500
H4293       H  0.14384702  0.31909357  0.50206015     0.27900
H4294       H  0.02385458  0.33927914  0.43599600     0.27800
H4295       H  0.09129668  0.34103200  0.39613815     0.18400
H4296       H  0.10145454  0.30299676  0.49031617     0.18400
C4297       C  0.06612109  0.17473361  0.37313948    -0.07400
C4298       C  0.07057317  0.20345425  0.37469149    -0.18500
C4299       C  0.06230007  0.21933966  0.39737577     0.09800
C4300       C  0.04775675  0.20696402  0.41925496    -0.07300
C4301       C  0.04274002  0.17825380  0.41775180    -0.18500
C4302       C  0.05188492  0.16201893  0.39507997     0.09800
S4303       S  0.07279434  0.25507569  0.39777277    -0.33500
S4304       S  0.04444733  0.12549057  0.39395804    -0.33500
H4305       H  0.02968817  0.12445106  0.41880641     0.27900
H4306       H  0.08184741  0.25446256  0.42539472     0.27800
H4307       H  0.08215342  0.21365347  0.35866148     0.18400
H4308       H  0.03134422  0.16863927  0.43421873     0.18400
C4309       C  0.10019512  0.34266914  0.58435945    -0.07400
C4310       C  0.08310172  0.32338342  0.59735810    -0.18500
C4311       C  0.06454100  0.30692391  0.58228336     0.09800
C4312       C  0.06260953  0.30978472  0.55338244    -0.07300
C4313       C  0.07813746  0.33040206  0.54050022    -0.18500
C4314       C  0.09689827  0.34683756  0.55563346     0.09800
S4315       S  0.04401958  0.28175248  0.60021640    -0.33500
S4316       S  0.11542604  0.37299016  0.53722577    -0.33500
H4317       H  0.11823708  0.39117304  0.55984465     0.27900
H4318       H  0.05554949  0.28586352  0.62665428     0.27800
H4319       H  0.08532795  0.32014363  0.61935406     0.18400
H4320       H  0.07572075  0.33365587  0.51856761     0.18400
C4321       C  0.04684266  0.19702748  0.57127020    -0.07400
C4322       C  0.03873080  0.19974584  0.59897820    -0.18500
C4323       C  0.05085803  0.18390849  0.62029566     0.09800
C4324       C  0.07169799  0.16413296  0.61407050    -0.07300
C4325       C  0.07915809  0.16089767  0.58609343    -0.18500
C4326       C  0.06735684  0.17706996  0.56487256     0.09800
S4327       S  0.03982651  0.19017637  0.65532519    -0.33500
S4328       S  0.08027191  0.17303151  0.53011287    -0.33500
H4329       H  0.10309722  0.15616475  0.53656470     0.27900
H4330       H  0.02205254  0.21254499  0.64987828     0.27800
H4331       H  0.02300705  0.21485145  0.60405280     0.18400
H4332       H  0.09533414  0.14635703  0.58085905     0.18400
C4333       C  0.30590658  0.92977604  0.44980113    -0.07400
C4334       C  0.30124622  0.90247876  0.45860174    -0.18500
C4335       C  0.31414603  0.87963896  0.44607150     0.09800
C4336       C  0.33240688  0.88377406  0.42386002    -0.07300
C4337       C  0.33893159  0.91112565  0.41656355    -0.18500
C4338       C  0.32583493  0.93401052  0.42902062     0.09800
S4339       S  0.30702244  0.84533171  0.45885975    -0.33500
S4340       S  0.33395644  0.96771041  0.41584943    -0.33500
H4341       H  0.30621156  0.97463319  0.41044272     0.27900
H4342       H  0.28649237  0.85290784  0.47784220     0.27800
H4343       H  0.28685321  0.89893474  0.47516665     0.18400
H4344       H  0.35276388  0.91472852  0.39955867     0.18400
C4345       C  0.19703122  0.95325766  0.42579647    -0.07400
C4346       C  0.19312647  0.96774774  0.40110992    -0.18500
C4347       C  0.17883573  0.95621540  0.37878429     0.09800
C4348       C  0.16978718  0.92849918  0.37990390    -0.07300
C4349       C  0.17264252  0.91420538  0.40502963    -0.18500
C4350       C  0.18615798  0.92626865  0.42792420     0.09800
S4351       S  0.17186221  0.97853545  0.35002420    -0.33500
S4352       S  0.19101494  0.90537887  0.45820752    -0.33500
H4353       H  0.21895384  0.91235498  0.46175895     0.27900
H4354       H  0.14525343  0.96784501  0.34529462     0.27800
H4355       H  0.20115268  0.98855695  0.39926259     0.18400
H4356       H  0.16570205  0.89297933  0.40640551     0.18400
C4357       C  0.30473921  0.94280471  0.55859281    -0.07400
C4358       C  0.29632783  0.93309449  0.58432267    -0.18500
C4359       C  0.30257692  0.90611824  0.59250407     0.09800
C4360       C  0.31740524  0.88860266  0.57440652    -0.07300
C4361       C  0.32765939  0.89906837  0.54970091    -0.18500
C4362       C  0.32217005  0.92629439  0.54206221     0.09800
S4363       S  0.28928284  0.89355761  0.62484176    -0.33500
S4364       S  0.33831628  0.93912437  0.51134959    -0.33500
H4365       H  0.33506689  0.96733278  0.51791429     0.27900
H4366       H  0.27629578  0.91821137  0.63329846     0.27800
H4367       H  0.28268899  0.94569147  0.59680406     0.18400
H4368       H  0.34064982  0.88624015  0.53671990     0.18400
C4369       C  0.20683006  0.93238030  0.55710244    -0.07400
C4370       C  0.18412630  0.94689986  0.56786325    -0.18500
C4371       C  0.16971928  0.93715813  0.59075050     0.09800
C4372       C  0.17923510  0.91306535  0.60420032    -0.07300
C4373       C  0.20141035  0.89815804  0.59306788    -0.18500
C4374       C  0.21506326  0.90725251  0.56949363     0.09800
S4375       S  0.13958880  0.95660992  0.60120671    -0.33500
S4376       S  0.24271998  0.88575792  0.55671783    -0.33500
H4377       H  0.25928108  0.90704769  0.54666569     0.27900
H4378       H  0.13062434  0.93967530  0.62269278     0.27800
H4379       H  0.17755241  0.96606398  0.55829851     0.18400
H4380       H  0.20817547  0.87919861  0.60286387     0.18400
C4381       C  0.29616440  0.07796093  0.53952572    -0.07400
C4382       C  0.28690979  0.10473819  0.53286123    -0.18500
C4383       C  0.29666590  0.12832055  0.54644203     0.09800
C4384       C  0.31525845  0.12543305  0.56884717    -0.07300
C4385       C  0.32605684  0.09882454  0.57438079    -0.18500
C4386       C  0.31720495  0.07529869  0.55965675     0.09800
S4387       S  0.28427875  0.16115329  0.53389112    -0.33500
S4388       S  0.33206456  0.04249994  0.56901439    -0.33500
H4389       H  0.33804939  0.03511264  0.54156759     0.27900
H4390       H  0.31082551  0.17286374  0.53288082     0.27800
H4391       H  0.27111570  0.10735488  0.51730815     0.18400
H4392       H  0.34115321  0.09606691  0.59074078     0.18400
C4393       C  0.19565796  0.03805200  0.57173310    -0.07400
C4394       C  0.20535984  0.03363230  0.59880099    -0.18500
C4395       C  0.19427005  0.04787933  0.62129151     0.09800
C4396       C  0.17203707  0.06637807  0.61710344    -0.07300
C4397       C  0.16113342  0.06957572  0.59038885    -0.18500
C4398       C  0.17244258  0.05553836  0.56777548     0.09800
S4399       S  0.21173415  0.04400567  0.65405742    -0.33500
S4400       S  0.15743646  0.06260372  0.53443867    -0.33500
H4401       H  0.15346634  0.03443316  0.52813091     0.27900
H4402       H  0.21339490  0.07260696  0.65933263     0.27800
H4403       H  0.22308275  0.02034585  0.60235140     0.18400
H4404       H  0.14406992  0.08373574  0.58697572     0.18400
C4405       C  0.29553654  0.08462935  0.45781970    -0.07400
C4406       C  0.32354643  0.08022701  0.45135488    -0.18500
C4407       C  0.34026463  0.10166883  0.44173152     0.09800
C4408       C  0.32873822  0.12822333  0.43782458    -0.07300
C4409       C  0.30224604  0.13347673  0.44829724    -0.18500
C4410       C  0.28527643  0.11219092  0.45759891     0.09800
S4411       S  0.37553699  0.09335780  0.43377851    -0.33500
S4412       S  0.25007292  0.12112438  0.46641882    -0.33500
H4413       H  0.25357637  0.14996162  0.46806738     0.27900
H4414       H  0.38595485  0.11854932  0.44410857     0.27800
H4415       H  0.33237647  0.05966985  0.45279283     0.18400
H4416       H  0.29365977  0.15410322  0.44661753     0.18400
C4417       C  0.19118243  0.05020221  0.42611306    -0.07400
C4418       C  0.20110712  0.07659274  0.42012845    -0.18500
C4419       C  0.18514696  0.09553515  0.40561895     0.09800
C4420       C  0.15920747  0.08726878  0.39518662    -0.07300
C4421       C  0.14892143  0.06099872  0.40136541    -0.18500
C4422       C  0.16407269  0.04275317  0.41793591     0.09800
S4423       S  0.19883519  0.12976034  0.39994559    -0.33500
S4424       S  0.14753554  0.01059500  0.42660049    -0.33500
H4425       H  0.16419793  0.00309787  0.44903764     0.27900
H4426       H  0.22648746  0.12372357  0.40668167     0.27800
H4427       H  0.22140212  0.08261211  0.42737691     0.18400
H4428       H  0.12897326  0.05473408  0.39324198     0.18400
C4429       C  0.54263205  0.93873060  0.30319779    -0.07400
C4430       C  0.53134318  0.91192949  0.30195330    -0.18500
C4431       C  0.54364354  0.88938681  0.31569863     0.09800
C4432       C  0.56805549  0.89331298  0.33131262    -0.07300
C4433       C  0.57856633  0.92038676  0.33388168    -0.18500
C4434       C  0.56622141  0.94295700  0.32014870     0.09800
S4435       S  0.52810434  0.85561333  0.31281020    -0.33500
S4436       S  0.58340586  0.97582354  0.32255396    -0.33500
H4437       H  0.55955550  0.99013905  0.33090160     0.27900
H4438       H  0.50330128  0.86422255  0.30022386     0.27800
H4439       H  0.51327982  0.90841286  0.28915628     0.18400
H4440       H  0.59747853  0.92379260  0.34547876     0.18400
C4441       C  0.57567902  0.96307604  0.19721950    -0.07400
C4442       C  0.56824837  0.94688638  0.17410846    -0.18500
C4443       C  0.58768976  0.93066489  0.16009854     0.09800
C4444       C  0.61523147  0.92968822  0.16967741    -0.07300
C4445       C  0.62326289  0.94736736  0.19129701    -0.18500
C4446       C  0.60403046  0.96433695  0.20493430     0.09800
S4447       S  0.57615788  0.91247394  0.12964673    -0.33500
S4448       S  0.61640348  0.98708587  0.23210279    -0.33500
H4449       H  0.64479038  0.98307741  0.22762834     0.27900
H4450       H  0.60215547  0.91106980  0.11703546     0.27800
H4451       H  0.54696438  0.94635809  0.16710700     0.18400
H4452       H  0.64451183  0.94687352  0.19839109     0.18400
C4453       C  0.44786789  0.93301880  0.29538452    -0.07400
C4454       C  0.43392995  0.94155682  0.31947351    -0.18500
C4455       C  0.41608111  0.92373910  0.33340012     0.09800
C4456       C  0.41163856  0.89692581  0.32290750    -0.07300
C4457       C  0.42655269  0.88784153  0.29994952    -0.18500
C4458       C  0.44455473  0.90528220  0.28603790     0.09800
S4459       S  0.40032637  0.93598005  0.36473139    -0.33500
S4460       S  0.46262178  0.89108973  0.25651651    -0.33500
H4461       H  0.44712737  0.86669178  0.25345503     0.27900
H4462       H  0.39979077  0.90999458  0.37760337     0.27800
H4463       H  0.43649963  0.96242178  0.32732673     0.18400
H4464       H  0.42359715  0.86689477  0.29250760     0.18400
C4465       C  0.42263499  0.96135339  0.19211320    -0.07400
C4466       C  0.39650775  0.97413299  0.19167160    -0.18500
C4467       C  0.37384554  0.96219073  0.17782090     0.09800
C4468       C  0.37664661  0.93603124  0.16483670    -0.07300
C4469       C  0.40302378  0.92363277  0.16456765    -0.18500
C4470       C  0.42589726  0.93584718  0.17801777     0.09800
S4471       S  0.34217830  0.98180810  0.17693067    -0.33500
S4472       S  0.45832737  0.91728353  0.17921575    -0.33500
H4473       H  0.45052795  0.89524316  0.16176090     0.27900
H4474       H  0.33497514  0.97370324  0.14987452     0.27800
H4475       H  0.39374705  0.99381021  0.20216190     0.18400
H4476       H  0.40545475  0.90354455  0.15491363     0.18400
C4477       C  0.46064187  0.08445100  0.30045020    -0.07400
C4478       C  0.44477177  0.07766874  0.32359650    -0.18500
C4479       C  0.43170293  0.09807931  0.33956882     0.09800
C4480       C  0.43384132  0.12625146  0.33214832    -0.07300
C4481       C  0.45155417  0.13321010  0.31048710    -0.18500
C4482       C  0.46518339  0.11287491  0.29478403     0.09800
S4483       S  0.41043263  0.08643759  0.36738118    -0.33500
S4484       S  0.48803791  0.12396853  0.26765191    -0.33500
H4485       H  0.48317413  0.15255114  0.27011102     0.27900
H4486       H  0.42311783  0.10407059  0.38687759     0.27800
H4487       H  0.44145252  0.05615624  0.32870088     0.18400
H4488       H  0.45378690  0.15478265  0.30512938     0.18400
C4489       C  0.43486701  0.06098648  0.19270270    -0.07400
C4490       C  0.42499722  0.08563148  0.20449151    -0.18500
C4491       C  0.40217723  0.09969704  0.19356618     0.09800
C4492       C  0.38793190  0.08864145  0.17029295    -0.07300
C4493       C  0.39897524  0.06479981  0.15746256    -0.18500
C4494       C  0.42234562  0.05108952  0.16818274     0.09800
S4495       S  0.39123799  0.13016776  0.21213311    -0.33500
S4496       S  0.43367701  0.02010811  0.15075034    -0.33500
H4497       H  0.46121095  0.02121525  0.15984791     0.27900
H4498       H  0.39229261  0.14709278  0.18864177     0.27800
H4499       H  0.43443798  0.09336157  0.22338707     0.18400
H4500       H  0.38880364  0.05616680  0.13938616     0.18400
C4501       C  0.56158878  0.06886228  0.30546101    -0.07400
C4502       C  0.54252391  0.08883789  0.31497431    -0.18500
C4503       C  0.55064424  0.11128259  0.33146665     0.09800
C4504       C  0.57849023  0.11427176  0.33901776    -0.07300
C4505       C  0.59715469  0.09303829  0.33211898    -0.18500
C4506       C  0.58920732  0.07051167  0.31524596     0.09800
S4507       S  0.52456109  0.13552867  0.34209173    -0.33500
S4508       S  0.61520634  0.04577663  0.30477845    -0.33500
H4509       H  0.63748708  0.05743582  0.31950532     0.27900
H4510       H  0.53873338  0.14470374  0.36586345     0.27800
H4511       H  0.52104173  0.08751924  0.30891463     0.18400
H4512       H  0.61860486  0.09537183  0.33804781     0.18400
C4513       C  0.56341951  0.07651883  0.19780824    -0.07400
C4514       C  0.56912338  0.10470991  0.20220154    -0.18500
C4515       C  0.59063890  0.11813356  0.18836761     0.09800
C4516       C  0.60777063  0.10299249  0.16997541    -0.07300
C4517       C  0.60094420  0.07518455  0.16451811    -0.18500
C4518       C  0.57896546  0.06205808  0.17776164     0.09800
S4519       S  0.59501710  0.15448824  0.19548573    -0.33500
S4520       S  0.57151936  0.02704038  0.16741760    -0.33500
H4521       H  0.54282079  0.02921794  0.17104944     0.27900
H4522       H  0.59985435  0.16137909  0.16778262     0.27800
H4523       H  0.55710602  0.11632423  0.21709605     0.18400
H4524       H  0.61319086  0.06318162  0.15013785     0.18400
C4525       C  0.92841294  0.45519399  0.30769762    -0.07400
C4526       C  0.93743698  0.44103492  0.33157135    -0.18500
C4527       C  0.91929294  0.42497272  0.34747909     0.09800
C4528       C  0.89111095  0.42312150  0.33990300    -0.07300
C4529       C  0.88180486  0.43835942  0.31714678    -0.18500
C4530       C  0.89979785  0.45362334  0.30060841     0.09800
S4531       S  0.93331137  0.40754829  0.37725028    -0.33500
S4532       S  0.88529641  0.46903679  0.26964343    -0.33500
H4533       H  0.85750219  0.46199206  0.27374454     0.27900
H4534       H  0.90889139  0.40884459  0.39271276     0.27800
H4535       H  0.95899622  0.44182875  0.33759051     0.18400
H4536       H  0.86031027  0.43679274  0.31115282     0.18400
C4537       C  0.91898022  0.40158570  0.16232989    -0.07400
C4538       C  0.93834525  0.38994956  0.18061231    -0.18500
C4539       C  0.95387134  0.40637372  0.19877010     0.09800
C4540       C  0.95084414  0.43544269  0.19796521    -0.07300
C4541       C  0.93280077  0.44717078  0.17829559    -0.18500
C4542       C  0.91679512  0.43063880  0.16063191     0.09800
S4543       S  0.97631975  0.38952125  0.22347038    -0.33500
S4544       S  0.89383632  0.44788359  0.13677862    -0.33500
H4545       H  0.89611682  0.42771296  0.11585045     0.27900
H4546       H  0.97341954  0.36237365  0.21326986     0.27800
H4547       H  0.93992353  0.36766583  0.18209738     0.18400
H4548       H  0.93033810  0.46942928  0.17728363     0.18400
C4549       C  0.92876113  0.54835017  0.31227878    -0.07400
C4550       C  0.90487870  0.53219909  0.31325944    -0.18500
C4551       C  0.88144569  0.54098377  0.32747140     0.09800
C4552       C  0.88131916  0.56724932  0.34044667    -0.07300
C4553       C  0.90630306  0.58201030  0.34225196    -0.18500
C4554       C  0.92989436  0.57302981  0.32804506     0.09800
S4555       S  0.85216665  0.51808902  0.32746642    -0.33500
S4556       S  0.95947872  0.59552715  0.32828258    -0.33500
H4557       H  0.96492897  0.59266637  0.29994638     0.27900
H4558       H  0.84217357  0.52768099  0.35291937     0.27800
H4559       H  0.90423283  0.51281663  0.30207650     0.18400
H4560       H  0.90669182  0.60214253  0.35219570     0.18400
C4561       C  0.94289744  0.62687778  0.17146742    -0.07400
C4562       C  0.93594210  0.59960564  0.16452504    -0.18500
C4563       C  0.94528139  0.57741795  0.18042331     0.09800
C4564       C  0.96332785  0.58231526  0.20316804    -0.07300
C4565       C  0.97243558  0.60946470  0.20828516    -0.18500
C4566       C  0.96226678  0.63178058  0.19281602     0.09800
S4567       S  0.93068746  0.54407654  0.17218758    -0.33500
S4568       S  0.97354136  0.66653522  0.20081171    -0.33500
H4569       H  0.99161823  0.65959081  0.22256070     0.27900
H4570       H  0.92139517  0.53951849  0.19923390     0.27800
H4571       H  0.92076286  0.59571348  0.14841533     0.18400
H4572       H  0.98687714  0.61330182  0.22502640     0.18400
C4573       C  0.12594833  0.56766372  0.32718502    -0.07400
C4574       C  0.09949133  0.57117582  0.33849054    -0.18500
C4575       C  0.07643224  0.55735437  0.32785972     0.09800
C4576       C  0.07985644  0.53867383  0.30556341    -0.07300
C4577       C  0.10658360  0.53393567  0.29529258    -0.18500
C4578       C  0.12954473  0.54840387  0.30544129     0.09800
S4579       S  0.04299776  0.56519922  0.34247587    -0.33500
S4580       S  0.16282448  0.54193542  0.28998761    -0.33500
H4581       H  0.15344185  0.52597015  0.26744426     0.27900
H4582       H  0.05112300  0.58763496  0.35925455     0.27800
H4583       H  0.09653452  0.58569657  0.35528677     0.18400
H4584       H  0.10942044  0.51937831  0.27848709     0.18400
C4585       C  0.05809369  0.55929057  0.20177962    -0.07400
C4586       C  0.08470895  0.56527647  0.21177306    -0.18500
C4587       C  0.10278004  0.58250771  0.19737684     0.09800
C4588       C  0.09373007  0.59561577  0.17273124    -0.07300
C4589       C  0.06754897  0.58831683  0.16205241    -0.18500
C4590       C  0.04997012  0.57003168  0.17590915     0.09800
S4591       S  0.13641535  0.58773628  0.21263014    -0.33500
S4592       S  0.01675279  0.56328434  0.16036991    -0.33500
H4593       H  0.01341285  0.53664391  0.17105196     0.27900
H4594       H  0.15039950  0.58245794  0.18779069     0.27800
H4595       H  0.09141961  0.55664944  0.23132601     0.18400
H4596       H  0.06021465  0.59765988  0.14308079     0.18400
C4597       C  0.05562339  0.42558648  0.30396240    -0.07400
C4598       C  0.06885498  0.43999669  0.32540297    -0.18500
C4599       C  0.09125521  0.42858571  0.33994960     0.09800
C4600       C  0.10146831  0.40199453  0.33252641    -0.07300
C4601       C  0.08709014  0.38692399  0.31199945    -0.18500
C4602       C  0.06428734  0.39832418  0.29778882     0.09800
S4603       S  0.10618679  0.44879786  0.36772020    -0.33500
S4604       S  0.04776338  0.37858023  0.27060244    -0.33500
H4605       H  0.06644387  0.35625409  0.27042462     0.27900
H4606       H  0.09323885  0.47410857  0.36148018     0.27800
H4607       H  0.06177936  0.46067798  0.33044897     0.18400
H4608       H  0.09435270  0.36649389  0.30633211     0.18400
C4609       C  0.05914583  0.43519199  0.20057674    -0.07400
C4610       C  0.04860763  0.40831528  0.20240713    -0.18500
C4611       C  0.05998693  0.38629887  0.18746145     0.09800
C4612       C  0.08295831  0.39119369  0.17031544    -0.07300
C4613       C  0.09199399  0.41859810  0.16674379    -0.18500
C4614       C  0.08024141  0.44058778  0.18147725     0.09800
S4615       S  0.04440675  0.35246007  0.19042609    -0.33500
S4616       S  0.09292772  0.47490687  0.17481921    -0.33500
H4617       H  0.06715068  0.48798767  0.17796276     0.27900
H4618       H  0.02830238  0.35812133  0.21375146     0.27800
H4619       H  0.03199785  0.40433937  0.21650831     0.18400
H4620       H  0.10904117  0.42291488  0.15311546     0.18400
loop_ 
_geom_bond_atom_site_label_1 
_geom_bond_atom_site_label_2 
_geom_bond_distance 
_geom_bond_site_symmetry_2 
_ccdc_geom_bond_type 
O1            C9   1.270       .  A
O1          Co21   1.904       .  S
O2           C10   1.267       .  A
O2          Co22   1.976   1_655  S
O3           C11   1.262       .  A
O3          Co23   1.985       .  S
O4           C12   1.277       .  A
O4          Co24   2.027       .  S
O5           C11   1.260       .  A
O5          Co22   1.978       .  S
O6           C12   1.276       .  A
O6          Co21   1.991   1_655  S
O7           C10   1.276       .  A
O7          Co24   2.017       .  S
O8            C9   1.299       .  A
O8          Co23   2.114       .  S
C9         C4597   1.486       .  S
C10        C4549   1.480       .  S
C11        C4576   1.483       .  S
C12        C4525   1.511       .  S
O13          C26   1.265       .  A
O13         Co21   2.004   1_655  S
O14          C27   1.279       .  A
O14         Co22   2.036       .  S
O15          C28   1.265       .  A
O15         Co23   1.888       .  S
O16          C29   1.258       .  A
O16         Co24   1.962       .  S
O17          C29   1.273       .  A
O17         Co22   2.021   1_655  S
O18          C28   1.295       .  A
O18         Co21   2.111       .  S
O19          C26   1.260       .  A
O19         Co24   1.972       .  S
O20          C27   1.271       .  A
O20         Co23   1.983       .  S
Co21         O25   2.009   1_455  S
Co22         O25   2.044   1_455  S
Co23         O25   1.990   1_455  S
Co24         O25   2.005       .  S
C26        C4540   1.482       .  S
C27        C4585   1.487       .  S
C28        C4609   1.476       .  S
C29        C4564   1.485       .  S
O30          C38   1.271       .  A
O30         Co50   1.906       .  S
O31          C39   1.267       .  A
O31         Co51   1.974   1_565  S
O32          C40   1.265       .  A
O32         Co52   2.000       .  S
O33          C41   1.277       .  A
O33         Co53   2.022       .  S
O34          C40   1.269       .  A
O34         Co51   2.000       .  S
O35          C41   1.276       .  A
O35         Co50   2.000   1_565  S
O36          C39   1.270       .  A
O36         Co53   2.005       .  S
O37          C38   1.296       .  A
O37         Co52   2.113       .  S
C38        C4501   1.500       .  S
C39        C4453   1.489       .  S
C40        C4477   1.497       .  S
C41        C4429   1.501       .  S
O42          C55   1.267       .  A
O42         Co50   2.000   1_565  S
O43          C56   1.276       .  A
O43         Co51   2.012       .  S
O44          C57   1.268       .  A
O44         Co52   1.895       .  S
O45          C58   1.274       .  A
O45         Co53   1.989       .  S
O46          C58   1.276       .  A
O46         Co51   2.026   1_565  S
O47          C57   1.302       .  A
O47         Co50   2.138       .  S
O48          C55   1.270       .  A
O48         Co53   1.992       .  S
O49          C56   1.274       .  A
O49         Co52   1.990       .  S
Co50         O54   2.005       .  S
Co51         O54   2.032       .  S
Co52         O54   1.992       .  S
Co53         O54   2.036   1_565  S
C55        C4441   1.496       .  S
C56        C4489   1.481       .  S
C57        C4513   1.494       .  S
C58        C4465   1.496       .  S
O59          C67   1.256       .  A
O59         Co79   1.950       .  S
O60          C68   1.269       .  A
O60         Co80   1.895       .  S
O61          C69   1.275       .  A
O61         Co81   2.005   1_565  S
O62          C70   1.267       .  A
O62         Co82   1.995   1_545  S
O63          C69   1.276       .  A
O63         Co80   1.990       .  S
O64          C70   1.263       .  A
O64         Co79   1.984       .  S
O65          C68   1.294       .  A
O65         Co82   2.114       .  S
O66          C67   1.277       .  A
O66         Co81   2.021       .  S
C67        C4417   1.459       .  S
C68        C4369   1.473       .  S
C69        C4345   1.480       .  S
C70        C4393   1.486       .  S
O71          C84   1.274       .  A
O71         Co79   2.001       .  S
O72          C85   1.267       .  A
O72         Co80   1.995       .  S
O73          C86   1.271       .  A
O73         Co81   1.975       .  S
O74          C87   1.271       .  A
O74         Co82   1.881       .  S
O75          C87   1.295       .  A
O75         Co80   2.104       .  S
O76          C86   1.275       .  A
O76         Co79   2.021       .  S
O77          C84   1.276       .  A
O77         Co82   1.995   1_545  S
O78          C85   1.271       .  A
O78         Co81   2.007   1_565  S
Co79         O83   2.010       .  S
Co80         O83   1.972   1_565  S
Co81         O83   2.029       .  S
Co82         O83   1.980   1_565  S
C84        C4381   1.491       .  S
C85        C4333   1.500       .  S
C86        C4405   1.494       .  S
C87        C4357   1.461       .  S
O88          C96   1.267       .  A
O88        Co108   1.972   1_455  S
O89          C97   1.268       .  A
O89        Co109   2.001       .  S
O90          C98   1.272       .  A
O90        Co110   2.000       .  S
O91          C99   1.293       .  A
O91        Co111   2.093       .  S
O92          C98   1.262       .  A
O92        Co109   1.965   1_455  S
O93          C99   1.269       .  A
O93        Co108   1.897       .  S
O94          C97   1.275       .  A
O94        Co111   2.029       .  S
O95          C96   1.281       .  A
O95        Co110   2.043       .  S
C96        C4312   1.482       .  S
C97        C4261   1.512       .  S
C98        C4288   1.467       .  S
C99        C4240   1.481       .  S
O100        C113   1.290       .  A
O100       Co108   2.088       .  S
O101        C114   1.280       .  A
O101       Co109   2.035   1_455  S
O102        C115   1.265       .  A
O102       Co110   1.991       .  S
O103        C116   1.275       .  A
O103       Co111   1.984       .  S
O104        C116   1.274       .  A
O104       Co109   2.007       .  S
O105        C115   1.270       .  A
O105       Co108   2.021   1_455  S
O106        C113   1.273       .  A
O106       Co111   1.908       .  S
O107        C114   1.270       .  A
O107       Co110   1.988       .  S
Co108       O112   1.991   1_655  S
Co109       O112   2.026   1_655  S
Co110       O112   2.030       .  S
Co111       O112   1.991   1_655  S
C113       C4252   1.489       .  S
C114       C4300   1.500       .  S
C115       C4321   1.505       .  S
C116       C4276   1.486       .  S
O117        C125   1.273       .  A
O117       Co137   1.983       .  S
O118        C126   1.271       .  A
O118       Co138   1.893   1_556  S
O119        C127   1.285       .  A
O119       Co139   2.050       .  S
O120        C128   1.269       .  A
O120       Co140   2.011       .  S
O121        C127   1.276       .  A
O121       Co138   1.991       .  S
O122        C128   1.268       .  A
O122       Co137   1.997   1_556  S
O123        C126   1.291       .  A
O123       Co140   2.094       .  S
O124        C125   1.268       .  A
O124       Co139   1.966       .  S
C125       C4213   1.473       .  S
C126       C4168   1.464       .  S
C127       C4192   1.509       .  S
C128       C4144   1.505       .  S
O129        C142   1.280       .  A
O129       Co137   2.025   1_556  S
O130        C143   1.265       .  A
O130       Co138   1.983       .  S
O131        C144   1.276       .  A
O131       Co139   2.004       .  S
O132        C145   1.270       .  A
O132       Co140   1.914       .  S
O133        C145   1.295       .  A
O133       Co138   2.112   1_556  S
O134        C144   1.268       .  A
O134       Co137   1.994       .  S
O135        C142   1.269       .  A
O135       Co140   1.967       .  S
O136        C143   1.262       .  A
O136       Co139   1.974       .  S
Co137       O141   2.015       .  S
Co138       O141   1.982       .  S
Co139       O141   2.024       .  S
Co140       O141   1.990   1_556  S
C142       C4153   1.467       .  S
C143       C4201   1.458       .  S
C144       C4225   1.490       .  S
C145       C4177   1.491       .  S
O146        C154   1.275       .  A
O146       Co166   2.000   1_554  S
O147        C155   1.263       .  A
O147       Co167   1.982   1_556  S
O148        C156   1.277       .  A
O148       Co168   2.018       .  S
O149        C157   1.292       .  A
O149       Co169   2.104       .  S
O150        C156   1.266       .  A
O150       Co167   1.970       .  S
O151        C157   1.274       .  A
O151       Co166   1.891       .  S
O152        C155   1.271       .  A
O152       Co169   2.004       .  S
O153        C154   1.274       .  A
O153       Co168   2.001       .  S
C154       C4120   1.495       .  S
C155       C4069   1.492       .  S
C156       C4093   1.483       .  S
C157       C4045   1.482       .  S
O158        C171   1.299       .  A
O158       Co166   2.126       .  S
O159        C172   1.271       .  A
O159       Co167   1.993       .  S
O160        C173   1.265       .  A
O160       Co168   1.984       .  S
O161        C174   1.276       .  A
O161       Co169   1.990       .  S
O162        C174   1.278       .  A
O162       Co167   2.027   1_556  S
O163        C173   1.270       .  A
O163       Co166   2.003   1_554  S
O164        C171   1.270       .  A
O164       Co169   1.899       .  S
O165        C172   1.262       .  A
O165       Co168   1.954       .  S
Co166       O170   1.984   1_556  S
Co167       O170   2.022       .  S
Co168       O170   2.015       .  S
Co169       O170   1.971   1_556  S
C171       C4057   1.498       .  S
C172       C4105   1.465       .  S
C173       C4132   1.483       .  S
C174       C4084   1.500       .  S
O175        C183   1.276       .  A
O175       Co195   2.027       .  S
O176        C184   1.298       .  A
O176       Co196   2.118       .  S
O177        C185   1.262       .  A
O177       Co197   1.983   1_565  S
O178        C186   1.275       .  A
O178       Co198   1.989   1_545  S
O179        C185   1.267       .  A
O179       Co196   1.993       .  S
O180        C186   1.275       .  A
O180       Co195   2.010       .  S
O181        C184   1.266       .  A
O181       Co198   1.881       .  S
O182        C183   1.262       .  A
O182       Co197   1.965       .  S
C183       C4024   1.481       .  S
C184       C3949   1.486       .  S
C185       C3973   1.481       .  S
C186       C3997   1.484       .  S
O187        C200   1.270       .  A
O187       Co195   2.008       .  S
O188        C201   1.274       .  A
O188       Co196   1.991       .  S
O189        C202   1.276       .  A
O189       Co197   2.016       .  S
O190        C203   1.305       .  A
O190       Co198   2.142       .  S
O191        C203   1.265       .  A
O191       Co196   1.892       .  S
O192        C202   1.271       .  A
O192       Co195   1.980       .  S
O193        C200   1.266       .  A
O193       Co198   1.996   1_545  S
O194        C201   1.275       .  A
O194       Co197   2.004   1_565  S
Co195       O199   2.031       .  S
Co196       O199   1.984   1_565  S
Co197       O199   2.032       .  S
Co198       O199   1.997   1_565  S
C200       C4012   1.506       .  S
C201       C3985   1.498       .  S
C202       C4033   1.498       .  S
C203       C3961   1.499       .  S
O204        C212   1.291       .  A
O204       Co224   2.089       .  S
O205        C213   1.270       .  A
O205       Co225   2.002       .  S
O206        C214   1.277       .  A
O206       Co226   2.000   1_556  S
O207        C215   1.264       .  A
O207       Co227   1.978       .  S
O208        C214   1.278       .  A
O208       Co225   2.015       .  S
O209        C215   1.281       .  A
O209       Co224   2.053       .  S
O210        C213   1.272       .  A
O210       Co227   1.986   1_556  S
O211        C212   1.274       .  A
O211       Co226   1.901       .  S
C212       C3928   1.476       .  S
C213       C3853   1.493       .  S
C214       C3877   1.504       .  S
C215       C3901   1.492       .  S
O216        C229   1.270       .  A
O216       Co224   1.976       .  S
O217        C230   1.265       .  A
O217       Co225   1.981       .  S
O218        C231   1.295       .  A
O218       Co226   2.124       .  S
O219        C232   1.272       .  A
O219       Co227   1.995   1_556  S
O220        C232   1.267       .  A
O220       Co225   1.968       .  S
O221        C231   1.276       .  A
O221       Co224   1.921       .  S
O222        C229   1.276       .  A
O222       Co227   2.023       .  S
O223        C230   1.269       .  A
O223       Co226   2.003   1_556  S
Co224       O228   1.993   1_554  S
Co225       O228   2.016       .  S
Co226       O228   1.997   1_554  S
Co227       O228   2.026   1_554  S
C229       C3913   1.476       .  S
C230       C3892   1.480       .  S
C231       C3940   1.514       .  S
C232       C3865   1.478       .  S
O233        C241   1.280       .  A
O233       Co253   2.064       .  S
O234        C242   1.273       .  A
O234       Co254   2.029       .  S
O235        C243   1.258       .  A
O235       Co255   1.964       .  S
O236        C244   1.266       .  A
O236       Co256   1.980   1_455  S
O237        C243   1.270       .  A
O237       Co254   2.031       .  S
O238        C244   1.268       .  A
O238       Co253   2.007       .  S
O239        C242   1.270       .  A
O239       Co256   1.982       .  S
O240        C241   1.261       .  A
O240       Co255   1.961   1_455  S
C241       C3832   1.496       .  S
C242       C3757   1.505       .  S
C243       C3781   1.474       .  S
C244       C3805   1.496       .  S
O245        C258   1.272       .  A
O245       Co253   1.993       .  S
O246        C259   1.265       .  A
O246       Co254   1.977       .  S
O247        C260   1.270       .  A
O247       Co255   2.031   1_455  S
O248        C261   1.267       .  A
O248       Co256   2.011       .  S
O249        C261   1.268       .  A
O249       Co254   1.991       .  S
O250        C260   1.265       .  A
O250       Co253   1.993       .  S
O251        C258   1.269       .  A
O251       Co256   2.006   1_455  S
O252        C259   1.275       .  A
O252       Co255   2.024       .  S
Co253       O257   2.120   1_455  S
Co254       O257   2.123       .  S
Co255       O257   2.093       .  S
Co256       O257   2.106       .  S
C258       C3817   1.491       .  S
C259       C3793   1.491       .  S
C260       C3844   1.513       .  S
C261       C3772   1.504       .  S
O262        C270   1.269       .  A
O262       Co282   1.890       .  S
O263        C271   1.261       .  A
O263       Co283   1.963   1_655  S
O264        C272   1.265       .  A
O264       Co284   2.015       .  S
O265        C273   1.278       .  A
O265       Co285   2.018       .  S
O266        C272   1.267       .  A
O266       Co283   2.009       .  S
O267        C273   1.273       .  A
O267       Co282   1.990   1_655  S
O268        C271   1.271       .  A
O268       Co285   2.006       .  S
O269        C270   1.292       .  A
O269       Co284   2.093       .  S
C270       C3736   1.457       .  S
C271       C3685   1.461       .  S
C272       C3709   1.513       .  S
C273       C3661   1.499       .  S
O274        C287   1.264       .  A
O274       Co282   2.008   1_655  S
O275        C288   1.278       .  A
O275       Co283   2.024       .  S
O276        C289   1.264       .  A
O276       Co284   1.878       .  S
O277        C290   1.261       .  A
O277       Co285   1.962       .  S
O278        C290   1.279       .  A
O278       Co283   2.027   1_655  S
O279        C289   1.301       .  A
O279       Co282   2.128       .  S
O280        C287   1.260       .  A
O280       Co285   1.985       .  S
O281        C288   1.268       .  A
O281       Co284   1.977       .  S
Co282       O286   2.006   1_455  S
Co283       O286   2.028   1_455  S
Co284       O286   1.980   1_455  S
Co285       O286   2.029       .  S
C287       C3673   1.480       .  S
C288       C3724   1.475       .  S
C289       C3748   1.496       .  S
C290       C3700   1.492       .  S
O291        C299   1.268       .  A
O291       Co311   1.984   1_554  S
O292        C300   1.303       .  A
O292       Co312   2.108       .  S
O293        C301   1.255       .  A
O293       Co313   1.954       .  S
O294        C302   1.237       .  A
O294       Co314   2.006       .  S
O295        C301   1.280       .  A
O295       Co312   2.062   1_554  S
O296        C302   1.241       .  A
O296       Co311   1.988       .  S
O297        C300   1.274       .  A
O297       Co314   1.925       .  S
O298        C299   1.269       .  A
O298       Co313   1.998       .  S
C299       C3637   1.470       .  S
C300       C3589   1.514       .  S
C301       C3613   1.502       .  S
C302       C3565   1.454       .  S
O303        C316   1.254       .  A
O303       Co311   1.949       .  S
O304        C317   1.252       .  A
O304       Co312   2.000   1_554  S
O305        C318   1.273       .  A
O305       Co313   2.031       .  S
O306        C319   1.293       .  A
O306       Co314   2.069       .  S
O307        C319   1.275       .  A
O307       Co312   1.942       .  S
O308        C318   1.243       .  A
O308       Co311   1.952   1_554  S
O309        C316   1.289       .  A
O309       Co314   2.091       .  S
O310        C317   1.258       .  A
O310       Co313   2.012       .  S
Co311       O315   2.082       .  S
Co312       O315   2.076       .  S
Co313       O315   2.077   1_554  S
Co314       O315   2.032       .  S
C316       C3577   1.512       .  S
C317       C3625   1.490       .  S
C318       C3649   1.489       .  S
C319       C3601   1.491       .  S
O320        C328   1.298       .  A
O320       Co340   2.124       .  S
O321        C329   1.274       .  A
O321       Co341   2.033       .  S
O322        C330   1.269       .  A
O322       Co342   1.975       .  S
O323        C331   1.254       .  A
O323       Co343   1.976       .  S
O324        C330   1.274       .  A
O324       Co341   2.030       .  S
O325        C331   1.265       .  A
O325       Co340   2.023       .  S
O326        C329   1.249       .  A
O326       Co343   1.923       .  S
O327        C328   1.256       .  A
O327       Co342   1.869       .  S
C328       C3532   1.474       .  S
C329       C3541   1.485       .  S
C330       C3520   1.500       .  S
C331       C3553   1.482       .  S
O332        C345   1.266       .  A
O332       Co340   1.977       .  S
O333        C346   1.254       .  A
O333       Co341   1.975       .  S
O334        C347   1.291       .  A
O334       Co342   2.088       .  S
O335        C348   1.279       .  A
O335       Co343   2.059       .  S
O336        C348   1.254       .  A
O336       Co341   1.951       .  S
O337        C347   1.267       .  A
O337       Co340   1.892       .  S
O338        C345   1.276       .  A
O338       Co343   2.028       .  S
O339        C346   1.255       .  A
O339       Co342   1.969       .  S
Co340       O344   2.032       .  S
Co341       O344   2.060       .  S
Co342       O344   1.993       .  S
Co343       O344   2.045       .  S
C345       C3505   1.486       .  S
C346       C3688   1.470       .  S
C347       C4237   1.465       .  S
C348       C3496   1.502       .  S
O349        C357   1.294       .  A
O349       Co369   2.000       .  S
O350        C358   1.245       .  A
O350       Co370   1.951       .  S
O351        C359   1.246       .  A
O351       Co371   2.008       .  S
O352        C360   1.281       .  A
O352       Co372   2.044       .  S
O353        C359   1.240       .  A
O353       Co370   1.964       .  S
O354        C360   1.270       .  A
O354       Co369   1.971       .  S
O355        C358   1.261       .  A
O355       Co372   2.026       .  S
O356        C357   1.278       .  A
O356       Co371   1.945       .  S
C357       C4165   1.471       .  S
C358       C3445   1.491       .  S
C359       C3856   1.470       .  S
C360       C3433   1.511       .  S
O361        C374   1.279       .  A
O361       Co369   2.048       .  S
O362        C375   1.283       .  A
O362       Co370   2.048       .  S
O363        C376   1.259       .  A
O363       Co371   1.991       .  S
O364        C377   1.274       .  A
O364       Co372   1.972       .  S
O365        C377   1.274       .  A
O365       Co370   2.016       .  S
O366        C376   1.247       .  A
O366       Co369   2.012       .  S
O367        C374   1.261       .  A
O367       Co372   1.961       .  S
O368        C375   1.292       .  A
O368       Co371   2.038       .  S
Co369       O373   2.080       .  S
Co370       O373   2.020       .  S
Co371       O373   2.012       .  S
Co372       O373   2.043       .  S
C374       C3481   1.492       .  S
C375       C3457   1.504       .  S
C376       C3472   1.463       .  S
C377       C3544   1.484       .  S
O378        C386   1.285       .  A
O378       Co398   2.054       .  S
O379        C387   1.265       .  A
O379       Co399   2.023       .  S
O380        C388   1.265       .  A
O380       Co400   1.878       .  S
O381        C389   1.263       .  A
O381       Co401   1.970       .  S
O382        C388   1.292       .  A
O382       Co399   2.094       .  S
O383        C389   1.273       .  A
O383       Co398   2.029       .  S
O384        C387   1.260       .  A
O384       Co401   1.988       .  S
O385        C386   1.269       .  A
O385       Co400   1.991       .  S
C386       C3409   1.520       .  S
C387       C3556   1.486       .  S
C388       C3397   1.455       .  S
C389       C3484   1.491       .  S
O390        C403   1.254       .  A
O390       Co398   1.951       .  S
O391        C404   1.263       .  A
O391       Co399   1.879       .  S
O392        C405   1.261       .  A
O392       Co400   2.026       .  S
O393        C406   1.283       .  A
O393       Co401   2.071       .  S
O394        C406   1.260       .  A
O394       Co399   1.971       .  S
O395        C405   1.249       .  A
O395       Co398   1.967       .  S
O396        C403   1.278       .  A
O396       Co401   2.060       .  S
O397        C404   1.297       .  A
O397       Co400   2.107       .  S
Co398       O402   2.029       .  S
Co399       O402   2.012       .  S
Co400       O402   2.033       .  S
Co401       O402   2.060       .  S
C403       C3376   1.512       .  S
C404       C3424   1.478       .  S
C405       C4021   1.489       .  S
C406       C3385   1.506       .  S
O407        C415   1.266       .  A
O407       Co427   1.898       .  S
O408        C416   1.248       .  A
O408       Co428   1.940       .  S
O409        C417   1.257       .  A
O409       Co429   1.998       .  S
O410        C418   1.270       .  A
O410       Co430   2.004       .  S
O411        C417   1.248       .  A
O411       Co428   1.955       .  S
O412        C418   1.267       .  A
O412       Co427   1.975       .  S
O413        C416   1.280       .  A
O413       Co430   2.076       .  S
O414        C415   1.289       .  A
O414       Co429   2.103       .  S
C415       C3529   1.471       .  S
C416       C3349   1.493       .  S
C417       C3400   1.470       .  S
C418       C3364   1.474       .  S
O419        C432   1.266       .  A
O419       Co427   1.996       .  S
O420        C433   1.282       .  A
O420       Co428   2.035       .  S
O421        C434   1.259       .  A
O421       Co429   1.861       .  S
O422        C435   1.267       .  A
O422       Co430   1.975       .  S
O423        C435   1.273       .  A
O423       Co428   2.011       .  S
O424        C434   1.307       .  A
O424       Co427   2.148       .  S
O425        C432   1.272       .  A
O425       Co430   2.005       .  S
O426        C433   1.267       .  A
O426       Co429   1.961       .  S
Co427       O431   1.998       .  S
Co428       O431   2.003       .  S
Co429       O431   2.001       .  S
Co430       O431   2.067       .  S
C432       C3313   1.498       .  S
C433       C3337   1.479       .  S
C434       C4249   1.493       .  S
C435       C3328   1.490       .  S
O436        C444   1.274       .  A
O436       Co456   2.026       .  S
O437        C445   1.253       .  A
O437       Co457   1.995       .  S
O438        C446   1.289       .  A
O438       Co458   2.044       .  S
O439        C447   1.268       .  A
O439       Co459   1.982       .  S
O440        C446   1.279       .  A
O440       Co457   1.958       .  S
O441        C447   1.283       .  A
O441       Co456   2.059       .  S
O442        C445   1.256       .  A
O442       Co459   1.994       .  S
O443        C444   1.261       .  A
O443       Co458   1.953       .  S
C444       C4180   1.498       .  S
C445       C3292   1.490       .  S
C446       C4036   1.500       .  S
C447       C3277   1.503       .  S
O448        C461   1.246       .  A
O448       Co456   1.947       .  S
O449        C462   1.270       .  A
O449       Co457   2.026       .  S
O450        C463   1.267       .  A
O450       Co458   2.000       .  S
O451        C464   1.269       .  A
O451       Co459   1.989       .  S
O452        C464   1.279       .  A
O452       Co457   2.020       .  S
O453        C463   1.257       .  A
O453       Co456   1.960       .  S
O454        C461   1.265       .  A
O454       Co459   2.035       .  S
O455        C462   1.265       .  A
O455       Co458   2.015       .  S
Co456       O460   2.065       .  S
Co457       O460   1.989       .  S
Co458       O460   2.094       .  S
Co459       O460   2.100       .  S
C461       C3304   1.476       .  S
C462       C3412   1.517       .  S
C463       C3469   1.468       .  S
C464       C3352   1.506       .  S
O465        C473   1.236       .  A
O465       Co485   1.990       .  S
O466        C474   1.260       .  A
O466       Co486   1.946       .  S
O467        C475   1.280       .  A
O467       Co487   2.037       .  S
O468        C476   1.264       .  A
O468       Co488   1.954       .  S
O469        C475   1.263       .  A
O469       Co486   1.966       .  S
O470        C476   1.278       .  A
O470       Co485   2.022       .  S
O471        C474   1.272       .  A
O471       Co488   2.020       .  S
O472        C473   1.250       .  A
O472       Co487   2.042       .  S
C473       C3460   1.498       .  S
C474       C3361   1.472       .  S
C475       C3517   1.496       .  S
C476       C3301   1.484       .  S
O477        C490   1.255       .  A
O477       Co485   1.978       .  S
O478        C491   1.270       .  A
O478       Co486   1.992       .  S
O479        C492   1.297       .  A
O479       Co487   1.971       .  S
O480        C493   1.261       .  A
O480       Co488   1.969       .  S
O481        C493   1.276       .  A
O481       Co486   2.037       .  S
O482        C492   1.301       .  A
O482       Co485   1.990       .  S
O483        C490   1.258       .  A
O483       Co488   1.998       .  S
O484        C491   1.276       .  A
O484       Co487   1.992       .  S
Co485       O489   1.992       .  S
Co486       O489   2.017       .  S
Co487       O489   2.073       .  S
Co488       O489   2.068       .  S
C490       C3253   1.483       .  S
C491       C3697   1.486       .  S
C492       C3868   1.469       .  S
C493       C3265   1.492       .  S
O494        C502   1.262       .  A
O494       Co514   2.023       .  S
O495        C503   1.260       .  A
O495       Co515   1.976       .  S
O496        C504   1.294       .  A
O496       Co516   2.053       .  S
O497        C505   1.269       .  A
O497       Co517   1.990       .  S
O498        C504   1.287       .  A
O498       Co515   1.928       .  S
O499        C505   1.275       .  A
O499       Co514   2.006       .  S
O500        C503   1.264       .  A
O500       Co517   2.013       .  S
O501        C502   1.241       .  A
O501       Co516   1.941       .  S
C502       C3217   1.463       .  S
C503       C3241   1.481       .  S
C504       C3208   1.501       .  S
C505       C3232   1.487       .  S
O506        C519   1.263       .  A
O506       Co514   1.980       .  S
O507        C520   1.265       .  A
O507       Co515   2.021       .  S
O508        C521   1.295       .  A
O508       Co516   2.060       .  S
O509        C522   1.277       .  A
O509       Co517   1.988       .  S
O510        C522   1.293       .  A
O510       Co515   2.054       .  S
O511        C521   1.278       .  A
O511       Co514   1.910       .  S
O512        C519   1.272       .  A
O512       Co517   2.024       .  S
O513        C520   1.238       .  A
O513       Co516   1.935       .  S
Co514       O518   1.942       .  S
Co515       O518   1.926       .  S
Co516       O518   2.101       .  S
Co517       O518   2.043       .  S
C519       C3193   1.489       .  S
C520       C4000   1.486       .  S
C521       C4384   1.492       .  S
C522       C3373   1.498       .  S
O523        C531   1.299       .  A
O523       Co543   2.107       .  S
O524        C532   1.278       .  A
O524       Co544   2.033       .  S
O525        C533   1.274       .  A
O525       Co545   1.987       .  S
O526        C534   1.257       .  A
O526       Co546   1.981       .  S
O527        C533   1.279       .  A
O527       Co544   2.032       .  S
O528        C534   1.268       .  A
O528       Co543   2.028       .  S
O529        C532   1.263       .  A
O529       Co546   1.972       .  S
O530        C531   1.268       .  A
O530       Co545   1.891       .  S
C531       C4309   1.488       .  S
C532       C3133   1.499       .  S
C533       C3712   1.512       .  S
C534       C3148   1.490       .  S
O535        C548   1.263       .  A
O535       Co543   1.966       .  S
O536        C549   1.250       .  A
O536       Co544   1.958       .  S
O537        C550   1.288       .  A
O537       Co545   2.098       .  S
O538        C551   1.274       .  A
O538       Co546   2.055       .  S
O539        C551   1.251       .  A
O539       Co544   1.953       .  S
O540        C550   1.269       .  A
O540       Co543   1.916       .  S
O541        C548   1.284       .  A
O541       Co546   2.055       .  S
O542        C549   1.264       .  A
O542       Co545   1.999       .  S
Co543       O547   2.030       .  S
Co544       O547   2.026       .  S
Co545       O547   2.023       .  S
Co546       O547   2.059       .  S
C548       C3229   1.508       .  S
C549       C3157   1.476       .  S
C550       C3172   1.497       .  S
C551       C3181   1.499       .  S
O552        C560   1.251       .  A
O552       Co572   1.967       .  S
O553        C561   1.254       .  A
O553       Co573   1.973       .  S
O554        C562   1.271       .  A
O554       Co574   2.013       .  S
O555        C563   1.264       .  A
O555       Co575   1.961       .  S
O556        C562   1.263       .  A
O556       Co573   1.982       .  S
O557        C563   1.276       .  A
O557       Co572   2.009       .  S
O558        C561   1.265       .  A
O558       Co575   2.045       .  S
O559        C560   1.262       .  A
O559       Co574   2.007       .  S
C560       C3109   1.475       .  S
C561       C3184   1.508       .  S
C562       C3121   1.482       .  S
C563       C3244   1.471       .  S
O564        C577   1.259       .  A
O564       Co572   2.008       .  S
O565        C578   1.270       .  A
O565       Co573   2.012       .  S
O566        C579   1.294       .  A
O566       Co574   2.065       .  S
O567        C580   1.265       .  A
O567       Co575   1.950       .  S
O568        C580   1.282       .  A
O568       Co573   2.042       .  S
O569        C579   1.277       .  A
O569       Co572   1.946       .  S
O570        C577   1.260       .  A
O570       Co575   1.993       .  S
O571        C578   1.265       .  A
O571       Co574   1.959       .  S
Co572       O576   1.979       .  S
Co573       O576   2.057       .  S
Co574       O576   2.101       .  S
Co575       O576   2.088       .  S
C577       C3436   1.513       .  S
C578       C4072   1.492       .  S
C579       C4141   1.512       .  S
C580       C3097   1.493       .  S
O581        C589   1.278       .  A
O581       Co601   2.022       .  S
O582        C590   1.258       .  A
O582       Co602   2.007       .  S
O583        C591   1.268       .  A
O583       Co603   1.881       .  S
O584        C592   1.267       .  A
O584       Co604   1.982       .  S
O585        C591   1.303       .  A
O585       Co602   2.111       .  S
O586        C592   1.279       .  A
O586       Co601   2.036       .  S
O587        C590   1.256       .  A
O587       Co604   1.985       .  S
O588        C589   1.269       .  A
O588       Co603   1.982       .  S
C589       C4081   1.503       .  S
C590       C3268   1.489       .  S
C591       C3721   1.479       .  S
C592       C3061   1.495       .  S
O593        C606   1.247       .  A
O593       Co601   1.931       .  S
O594        C607   1.257       .  A
O594       Co602   1.866       .  S
O595        C608   1.266       .  A
O595       Co603   2.031       .  S
O596        C609   1.289       .  A
O596       Co604   2.080       .  S
O597        C609   1.266       .  A
O597       Co602   1.978       .  S
O598        C608   1.251       .  A
O598       Co601   1.969       .  S
O599        C606   1.267       .  A
O599       Co604   2.025       .  S
O600        C607   1.297       .  A
O600       Co603   2.113       .  S
Co601       O605   2.007       .  S
Co602       O605   1.989       .  S
Co603       O605   2.026       .  S
Co604       O605   2.064       .  S
C606       C3073   1.466       .  S
C607       C3160   1.466       .  S
C608       C3124   1.482       .  S
C609       C3085   1.525       .  S
O610        C618   1.260       .  A
O610       Co630   2.001       .  S
O611        C619   1.268       .  A
O611       Co631   1.983       .  S
O612        C620   1.284       .  A
O612       Co632   2.050       .  S
O613        C621   1.277       .  A
O613       Co633   2.067       .  S
O614        C620   1.275       .  A
O614       Co631   1.919       .  S
O615        C621   1.250       .  A
O615       Co630   1.947       .  S
O616        C619   1.276       .  A
O616       Co633   2.049       .  S
O617        C618   1.241       .  A
O617       Co632   1.925       .  S
C618       C3220   1.456       .  S
C619       C3088   1.520       .  S
C620       C3169   1.491       .  S
C621       C3049   1.495       .  S
O622        C635   1.267       .  A
O622       Co630   2.018       .  S
O623        C636   1.271       .  A
O623       Co631   2.070       .  S
O624        C637   1.259       .  A
O624       Co632   1.962       .  S
O625        C638   1.257       .  A
O625       Co633   1.953       .  S
O626        C638   1.277       .  A
O626       Co631   2.038       .  S
O627        C637   1.263       .  A
O627       Co630   1.992       .  S
O628        C635   1.257       .  A
O628       Co633   1.981       .  S
O629        C636   1.244       .  A
O629       Co632   1.935       .  S
Co630       O634   2.113       .  S
Co631       O634   2.031       .  S
Co632       O634   2.050       .  S
Co633       O634   2.085       .  S
C635       C3037   1.500       .  S
C636       C4324   1.514       .  S
C637       C4396   1.476       .  S
C638       C3316   1.494       .  S
O639        C647   1.247       .  A
O639       Co659   1.939       .  S
O640        C648   1.276       .  A
O640       Co660   2.028       .  S
O641        C649   1.257       .  A
O641       Co661   1.984       .  S
O642        C650   1.253       .  A
O642       Co662   1.986       .  S
O643        C649   1.265       .  A
O643       Co660   2.014       .  S
O644        C650   1.252       .  A
O644       Co659   1.956       .  S
O645        C648   1.264       .  A
O645       Co662   1.977       .  S
O646        C647   1.269       .  A
O646       Co661   2.018       .  S
C647       C3112   1.495       .  S
C648       C3052   1.485       .  S
C649       C3205   1.501       .  S
C650       C3076   1.457       .  S
O651        C664   1.267       .  A
O651       Co659   2.010       .  S
O652        C665   1.274       .  A
O652       Co660   1.957       .  S
O653        C666   1.253       .  A
O653       Co661   1.914       .  S
O654        C667   1.245       .  A
O654       Co662   1.952       .  S
O655        C667   1.258       .  A
O655       Co660   2.005       .  S
O656        C666   1.278       .  A
O656       Co659   2.042       .  S
O657        C664   1.267       .  A
O657       Co662   1.994       .  S
O658        C665   1.288       .  A
O658       Co661   2.060       .  S
Co659       O663   2.077       .  S
Co660       O663   1.993       .  S
Co661       O663   2.110       .  S
Co662       O663   2.104       .  S
C664       C3013   1.506       .  S
C665       C4009   1.510       .  S
C666       C4156   1.469       .  S
C667       C3025   1.476       .  S
O668        C676   1.261       .  A
O668       Co688   1.954       .  S
O669        C677   1.255       .  A
O669       Co689   1.995       .  S
O670        C678   1.294       .  A
O670       Co690   2.096       .  S
O671        C679   1.263       .  A
O671       Co691   2.000       .  S
O672        C678   1.258       .  A
O672       Co689   1.889       .  S
O673        C679   1.259       .  A
O673       Co688   1.985       .  S
O674        C677   1.272       .  A
O674       Co691   2.037       .  S
O675        C676   1.279       .  A
O675       Co690   2.031       .  S
C676       C3976   1.474       .  S
C677       C2941   1.511       .  S
C678       C2977   1.485       .  S
C679       C2929   1.487       .  S
O680        C693   1.263       .  A
O680       Co688   1.982       .  S
O681        C694   1.305       .  A
O681       Co689   2.117       .  S
O682        C695   1.250       .  A
O682       Co690   2.016       .  S
O683        C696   1.257       .  A
O683       Co691   1.967       .  S
O684        C696   1.261       .  A
O684       Co689   2.002       .  S
O685        C695   1.248       .  A
O685       Co688   1.995       .  S
O686        C693   1.274       .  A
O686       Co691   2.033       .  S
O687        C694   1.264       .  A
O687       Co690   1.900       .  S
Co688       O692   2.086       .  S
Co689       O692   2.046       .  S
Co690       O692   2.054       .  S
Co691       O692   2.092       .  S
C693       C2989   1.502       .  S
C694       C2965   1.499       .  S
C695       C2953   1.499       .  S
C696       C3001   1.470       .  S
O697        C705   1.275       .  A
O697       Co717   1.879       .  S
O698        C706   1.271       .  A
O698       Co718   1.996       .  S
O699        C707   1.295       .  A
O699       Co719   2.002       .  S
O700        C708   1.260       .  A
O700       Co720   1.998       .  S
O701        C707   1.289       .  A
O701       Co718   1.978       .  S
O702        C708   1.263       .  A
O702       Co717   1.995       .  S
O703        C706   1.269       .  A
O703       Co720   2.009       .  S
O704        C705   1.303       .  A
O704       Co719   2.096       .  S
C705       C3784   1.477       .  S
C706       C3493   1.501       .  S
C707       C3664   1.506       .  S
C708       C2881   1.499       .  S
O709        C722   1.281       .  A
O709       Co717   2.021       .  S
O710        C723   1.257       .  A
O710       Co718   2.007       .  S
O711        C724   1.298       .  A
O711       Co719   2.099       .  S
O712        C725   1.262       .  A
O712       Co720   1.950       .  S
O713        C725   1.274       .  A
O713       Co718   2.017       .  S
O714        C724   1.253       .  A
O714       Co717   1.959       .  S
O715        C722   1.271       .  A
O715       Co720   1.961       .  S
O716        C723   1.273       .  A
O716       Co719   2.032       .  S
Co717       O721   1.906       .  S
Co718       O721   2.025       .  S
Co719       O721   2.048       .  S
Co720       O721   2.030       .  S
C722       C3004   1.476       .  S
C723       C2893   1.499       .  S
C724       C2905   1.485       .  S
C725       C2917   1.467       .  S
O726        C734   1.277       .  A
O726       Co746   2.024       .  S
O727        C735   1.254       .  A
O727       Co747   1.979       .  S
O728        C736   1.267       .  A
O728       Co748   1.874       .  S
O729        C737   1.260       .  A
O729       Co749   1.954       .  S
O730        C736   1.296       .  A
O730       Co747   2.098       .  S
O731        C737   1.279       .  A
O731       Co746   2.049       .  S
O732        C735   1.252       .  A
O732       Co749   1.977       .  S
O733        C734   1.273       .  A
O733       Co748   1.993       .  S
C734       C3880   1.499       .  S
C735       C2845   1.467       .  S
C736       C3568   1.456       .  S
C737       C3448   1.477       .  S
O738        C751   1.252       .  A
O738       Co746   1.938       .  S
O739        C752   1.256       .  A
O739       Co747   1.872       .  S
O740        C753   1.260       .  A
O740       Co748   1.995       .  S
O741        C754   1.284       .  A
O741       Co749   2.066       .  S
O742        C754   1.269       .  A
O742       Co747   1.973       .  S
O743        C753   1.262       .  A
O743       Co746   1.991       .  S
O744        C751   1.267       .  A
O744       Co749   2.023       .  S
O745        C752   1.302       .  A
O745       Co748   2.140       .  S
Co746       O750   2.017       .  S
Co747       O750   1.983       .  S
Co748       O750   2.007       .  S
Co749       O750   2.056       .  S
C751       C2920   1.465       .  S
C752       C2869   1.474       .  S
C753       C2857   1.496       .  S
C754       C2992   1.515       .  S
O755        C763   1.278       .  A
O755       Co775   2.014       .  S
O756        C764   1.269       .  A
O756       Co776   2.019       .  S
O757        C765   1.271       .  A
O757       Co777   1.897       .  S
O758        C766   1.265       .  A
O758       Co778   1.975       .  S
O759        C765   1.292       .  A
O759       Co776   2.094       .  S
O760        C766   1.274       .  A
O760       Co775   2.017       .  S
O761        C764   1.259       .  A
O761       Co778   1.970       .  S
O762        C763   1.271       .  A
O762       Co777   1.978       .  S
C763       C3796   1.485       .  S
C764       C3325   1.492       .  S
C765       C2809   1.481       .  S
C766       C2797   1.489       .  S
O767        C780   1.257       .  A
O767       Co775   1.946       .  S
O768        C781   1.269       .  A
O768       Co776   1.894       .  S
O769        C782   1.269       .  A
O769       Co777   2.026       .  S
O770        C783   1.279       .  A
O770       Co778   2.047       .  S
O771        C783   1.271       .  A
O771       Co776   1.971       .  S
O772        C782   1.260       .  A
O772       Co775   1.977       .  S
O773        C780   1.270       .  A
O773       Co778   2.019       .  S
O774        C781   1.296       .  A
O774       Co777   2.119       .  S
Co775       O779   2.001       .  S
Co776       O779   1.974       .  S
Co777       O779   2.014       .  S
Co778       O779   2.049       .  S
C780       C2821   1.454       .  S
C781       C2968   1.506       .  S
C782       C2908   1.496       .  S
C783       C2833   1.501       .  S
O784        C792   1.258       .  A
O784       Co804   1.998       .  S
O785        C793   1.268       .  A
O785       Co805   2.016       .  S
O786        C794   1.271       .  A
O786       Co806   2.016       .  S
O787        C795   1.250       .  A
O787       Co807   2.015       .  S
O788        C794   1.260       .  A
O788       Co805   1.973       .  S
O789        C795   1.237       .  A
O789       Co804   1.951       .  S
O790        C793   1.265       .  A
O790       Co807   1.993       .  S
O791        C792   1.254       .  A
O791       Co806   1.991       .  S
C792       C3889   1.480       .  S
C793       C2773   1.493       .  S
C794       C3676   1.482       .  S
C795       C2761   1.474       .  S
O796        C809   1.284       .  A
O796       Co804   2.064       .  S
O797        C810   1.276       .  A
O797       Co805   2.079       .  S
O798        C811   1.240       .  A
O798       Co806   1.932       .  S
O799        C812   1.249       .  A
O799       Co807   1.967       .  S
O800        C812   1.255       .  A
O800       Co805   1.975       .  S
O801        C811   1.272       .  A
O801       Co804   2.055       .  S
O802        C809   1.260       .  A
O802       Co807   1.961       .  S
O803        C810   1.231       .  A
O803       Co806   1.897       .  S
Co804       O808   2.125       .  S
Co805       O808   2.148       .  S
Co806       O808   2.010       .  S
Co807       O808   2.156       .  S
C809       C2785   1.503       .  S
C810       C2896   1.482       .  S
C811       C2860   1.493       .  S
C812       C2824   1.464       .  S
O813        C821   1.317       .  A
O813       Co833   2.155       .  S
O814        C822   1.268       .  A
O814       Co834   2.039       .  S
O815        C823   1.265       .  A
O815       Co835   1.961       .  S
O816        C824   1.260       .  A
O816       Co836   1.982       .  S
O817        C823   1.279       .  A
O817       Co834   2.049       .  S
O818        C824   1.268       .  A
O818       Co833   2.024       .  S
O819        C822   1.260       .  A
O819       Co836   1.991       .  S
O820        C821   1.281       .  A
O820       Co835   1.877       .  S
C821       C3988   1.490       .  S
C822       C2749   1.519       .  S
C823       C3580   1.492       .  S
C824       C3289   1.504       .  S
O825        C838   1.247       .  A
O825       Co833   1.939       .  S
O826        C839   1.254       .  A
O826       Co834   1.933       .  S
O827        C840   1.248       .  A
O827       Co835   2.049       .  S
O828        C841   1.282       .  A
O828       Co836   2.073       .  S
O829        C841   1.256       .  A
O829       Co834   1.950       .  S
O830        C840   1.235       .  A
O830       Co833   1.972       .  S
O831        C838   1.274       .  A
O831       Co836   2.057       .  S
O832        C839   1.281       .  A
O832       Co835   2.068       .  S
Co833       O837   2.116       .  S
Co834       O837   2.060       .  S
Co835       O837   2.026       .  S
Co836       O837   2.116       .  S
C838       C2836   1.497       .  S
C839       C2872   1.490       .  S
C840       C2956   1.499       .  S
C841       C2788   1.504       .  S
O842        C850   1.270       .  A
O842       Co862   1.899       .  S
O843        C851   1.258       .  A
O843       Co863   1.978       .  S
O844        C852   1.253       .  A
O844       Co864   1.880       .  S
O845        C853   1.264       .  A
O845       Co865   1.996       .  S
O846        C852   1.286       .  A
O846       Co863   2.078       .  S
O847        C853   1.261       .  A
O847       Co862   1.971       .  S
O848        C851   1.266       .  A
O848       Co865   2.025       .  S
O849        C850   1.285       .  A
O849       Co864   2.049       .  S
C850       C4360   1.460       .  S
C851       C2932   1.505       .  S
C852       C3952   1.482       .  S
C853       C2692   1.486       .  S
O854        C867   1.273       .  A
O854       Co862   2.031       .  S
O855        C868   1.277       .  A
O855       Co863   2.077       .  S
O856        C869   1.275       .  A
O856       Co864   2.030       .  S
O857        C870   1.245       .  A
O857       Co865   1.906       .  S
O858        C870   1.267       .  A
O858       Co863   2.013       .  S
O859        C869   1.252       .  A
O859       Co862   1.997       .  S
O860        C867   1.252       .  A
O860       Co865   1.936       .  S
O861        C868   1.267       .  A
O861       Co864   1.961       .  S
Co862       O866   1.987       .  S
Co863       O866   2.159       .  S
Co864       O866   1.955       .  S
Co865       O866   2.068       .  S
C867       C2725   1.474       .  S
C868       C2713   1.501       .  S
C869       C2704   1.489       .  S
C870       C2737   1.442       .  S
O871        C879   1.237       .  A
O871       Co891   1.923       .  S
O872        C880   1.255       .  A
O872       Co892   1.949       .  S
O873        C881   1.265       .  A
O873       Co893   2.009       .  S
O874        C882   1.276       .  A
O874       Co894   2.036       .  S
O875        C881   1.261       .  A
O875       Co892   1.956       .  S
O876        C882   1.260       .  A
O876       Co891   1.972       .  S
O877        C880   1.260       .  A
O877       Co894   1.997       .  S
O878        C879   1.257       .  A
O878       Co893   2.056       .  S
C879       C2665   1.475       .  S
C880       C2740   1.461       .  S
C881       C2653   1.462       .  S
C882       C2677   1.512       .  S
O883        C896   1.249       .  A
O883       Co891   1.939       .  S
O884        C897   1.277       .  A
O884       Co892   2.014       .  S
O885        C898   1.278       .  A
O885       Co893   1.916       .  S
O886        C899   1.265       .  A
O886       Co894   1.959       .  S
O887        C899   1.272       .  A
O887       Co892   2.009       .  S
O888        C898   1.297       .  A
O888       Co891   2.072       .  S
O889        C896   1.262       .  A
O889       Co894   1.996       .  S
O890        C897   1.280       .  A
O890       Co893   1.991       .  S
Co891       O895   2.005       .  S
Co892       O895   2.001       .  S
Co893       O895   2.011       .  S
Co894       O895   2.098       .  S
C896       C3100   1.466       .  S
C897       C3592   1.499       .  S
C898       C4048   1.481       .  S
C899       C2848   1.468       .  S
O900        C908   1.275       .  A
O900       Co920   2.005       .  S
O901        C909   1.270       .  A
O901       Co921   2.039       .  S
O902        C910   1.265       .  A
O902       Co922   2.005       .  S
O903        C911   1.272       .  A
O903       Co923   1.957       .  S
O904        C910   1.262       .  A
O904       Co921   2.055       .  S
O905        C911   1.275       .  A
O905       Co920   2.022       .  S
O906        C909   1.259       .  A
O906       Co923   1.982       .  S
O907        C908   1.295       .  A
O907       Co922   2.033       .  S
C908       C2641   1.472       .  S
C909       C2680   1.505       .  S
C910       C2629   1.507       .  S
C911       C2728   1.469       .  S
O912        C925   1.243       .  A
O912       Co920   1.951       .  S
O913        C926   1.284       .  A
O913       Co921   1.978       .  S
O914        C927   1.249       .  A
O914       Co922   2.001       .  S
O915        C928   1.281       .  A
O915       Co923   2.039       .  S
O916        C928   1.274       .  A
O916       Co921   1.982       .  S
O917        C927   1.249       .  A
O917       Co920   1.974       .  S
O918        C925   1.260       .  A
O918       Co923   2.038       .  S
O919        C926   1.277       .  A
O919       Co922   1.955       .  S
Co920       O924   2.050       .  S
Co921       O924   2.084       .  S
Co922       O924   2.019       .  S
Co923       O924   2.065       .  S
C925       C2617   1.496       .  S
C926       C3733   1.454       .  S
C927       C3829   1.492       .  S
C928       C3136   1.499       .  S
O929        C937   1.306       .  A
O929       Co949   2.029       .  S
O930        C938   1.272       .  A
O930       Co950   2.011       .  S
O931        C939   1.278       .  A
O931       Co951   1.994       .  S
O932        C940   1.263       .  A
O932       Co952   1.995       .  S
O933        C939   1.276       .  A
O933       Co950   2.002       .  S
O934        C940   1.266       .  A
O934       Co949   1.995       .  S
O935        C938   1.267       .  A
O935       Co952   1.981       .  S
O936        C937   1.294       .  A
O936       Co951   1.960       .  S
C937       C4372   1.467       .  S
C938       C2800   1.489       .  S
C939       C3841   1.509       .  S
C940       C3040   1.501       .  S
O941        C954   1.276       .  A
O941       Co949   2.013       .  S
O942        C955   1.255       .  A
O942       Co950   1.945       .  S
O943        C956   1.245       .  A
O943       Co951   2.025       .  S
O944        C957   1.275       .  A
O944       Co952   2.042       .  S
O945        C957   1.255       .  A
O945       Co950   1.951       .  S
O946        C956   1.232       .  A
O946       Co949   1.988       .  S
O947        C954   1.274       .  A
O947       Co952   1.989       .  S
O948        C955   1.277       .  A
O948       Co951   2.040       .  S
Co949       O953   2.006       .  S
Co950       O953   2.006       .  S
Co951       O953   2.075       .  S
Co952       O953   2.054       .  S
C954       C2605   1.487       .  S
C955       C2644   1.471       .  S
C956       C2701   1.486       .  S
C957       C2593   1.487       .  S
O958        C966   1.290       .  A
O958       Co978   2.078       .  S
O959        C967   1.270       .  A
O959       Co979   2.039       .  S
O960        C968   1.260       .  A
O960       Co980   1.976       .  S
O961        C969   1.263       .  A
O961       Co981   2.031       .  S
O962        C968   1.275       .  A
O962       Co979   2.057       .  S
O963        C969   1.249       .  A
O963       Co978   1.982       .  S
O964        C967   1.249       .  A
O964       Co981   1.946       .  S
O965        C966   1.250       .  A
O965       Co980   1.863       .  S
C966       C2668   1.475       .  S
C967       C2596   1.476       .  S
C968       C2632   1.514       .  S
C969       C2581   1.513       .  S
O970        C983   1.274       .  A
O970       Co978   2.050       .  S
O971        C984   1.246       .  A
O971       Co979   1.962       .  S
O972        C985   1.262       .  A
O972       Co980   2.020       .  S
O973        C986   1.269       .  A
O973       Co981   2.055       .  S
O974        C986   1.244       .  A
O974       Co979   1.955       .  S
O975        C985   1.256       .  A
O975       Co978   1.975       .  S
O976        C983   1.256       .  A
O976       Co981   1.976       .  S
O977        C984   1.258       .  A
O977       Co980   2.028       .  S
Co978       O982   2.172       .  S
Co979       O982   2.108       .  S
Co980       O982   2.028       .  S
Co981       O982   2.144       .  S
C983       C2569   1.503       .  S
C984       C3745   1.482       .  S
C985       C4060   1.503       .  S
C986       C2776   1.505       .  S
O987        C995   1.270       .  A
O987      Co1007   2.021       .  S
O988        C996   1.263       .  A
O988      Co1008   1.992       .  S
O989        C997   1.288       .  A
O989      Co1009   1.947       .  S
O990        C998   1.256       .  A
O990      Co1010   1.956       .  S
O991        C997   1.291       .  A
O991      Co1008   1.970       .  S
O992        C998   1.269       .  A
O992      Co1007   2.030       .  S
O993        C996   1.267       .  A
O993      Co1010   2.031       .  S
O994        C995   1.267       .  A
O994      Co1009   1.978       .  S
C995       C2716   1.498       .  S
C996       C2584   1.513       .  S
C997       C2656   1.445       .  S
C998       C2608   1.491       .  S
O999       C1012   1.245       .  A
O999      Co1007   1.923       .  S
O1000      C1013   1.238       .  A
O1000     Co1008   1.979       .  S
O1001      C1014   1.273       .  A
O1001     Co1009   2.056       .  S
O1002      C1015   1.267       .  A
O1002     Co1010   1.985       .  S
O1003      C1015   1.282       .  A
O1003     Co1008   2.032       .  S
O1004      C1014   1.251       .  A
O1004     Co1007   1.959       .  S
O1005      C1012   1.277       .  A
O1005     Co1010   2.038       .  S
O1006      C1013   1.248       .  A
O1006     Co1009   2.017       .  S
Co1007     O1011   2.052       .  S
Co1008     O1011   2.023       .  S
Co1009     O1011   2.093       .  S
Co1010     O1011   2.082       .  S
C1012      C3028   1.487       .  S
C1013      C3604   1.503       .  S
C1014      C3964   1.491       .  S
C1015      C2557   1.507       .  S
O1016      C1024   1.263       .  A
O1016     Co1036   2.007       .  S
O1017      C1025   1.249       .  A
O1017     Co1037   1.962       .  S
O1018      C1026   1.273       .  A
O1018     Co1038   2.038       .  S
O1019      C1027   1.272       .  A
O1019     Co1039   1.991       .  S
O1020      C1026   1.258       .  A
O1020     Co1037   1.969       .  S
O1021      C1027   1.269       .  A
O1021     Co1036   2.005       .  S
O1022      C1025   1.248       .  A
O1022     Co1039   1.974       .  S
O1023      C1024   1.257       .  A
O1023     Co1038   1.978       .  S
C1024      C2521   1.490       .  S
C1025      C2545   1.458       .  S
C1026      C2512   1.486       .  S
C1027      C2533   1.501       .  S
O1028      C1041   1.260       .  A
O1028     Co1036   2.026       .  S
O1029      C1042   1.278       .  A
O1029     Co1037   2.039       .  S
O1030      C1043   1.288       .  A
O1030     Co1038   2.039       .  S
O1031      C1044   1.268       .  A
O1031     Co1039   1.966       .  S
O1032      C1044   1.282       .  A
O1032     Co1037   2.036       .  S
O1033      C1043   1.269       .  A
O1033     Co1036   1.927       .  S
O1034      C1041   1.245       .  A
O1034     Co1039   1.957       .  S
O1035      C1042   1.253       .  A
O1035     Co1038   1.946       .  S
Co1036     O1040   1.980       .  S
Co1037     O1040   2.069       .  S
Co1038     O1040   2.098       .  S
Co1039     O1040   2.101       .  S
C1041      C2497   1.490       .  S
C1042      C3808   1.496       .  S
C1043      C4573   1.483       .  S
C1044      C2620   1.485       .  S
O1045      C1053   1.266       .  A
O1045     Co1065   2.005       .  S
O1046      C1054   1.256       .  A
O1046     Co1066   1.972       .  S
O1047      C1055   1.276       .  A
O1047     Co1067   2.009       .  S
O1048      C1056   1.255       .  A
O1048     Co1068   1.983       .  S
O1049      C1055   1.287       .  A
O1049     Co1066   2.012       .  S
O1050      C1056   1.259       .  A
O1050     Co1065   1.999       .  S
O1051      C1054   1.259       .  A
O1051     Co1068   1.978       .  S
O1052      C1053   1.256       .  A
O1052     Co1067   1.954       .  S
C1053      C4117   1.490       .  S
C1054      C2449   1.460       .  S
C1055      C3616   1.514       .  S
C1056      C2437   1.485       .  S
O1057      C1070   1.260       .  A
O1057     Co1065   1.959       .  S
O1058      C1071   1.247       .  A
O1058     Co1066   1.985       .  S
O1059      C1072   1.243       .  A
O1059     Co1067   1.923       .  S
O1060      C1073   1.258       .  A
O1060     Co1068   1.962       .  S
O1061      C1073   1.278       .  A
O1061     Co1066   2.037       .  S
O1062      C1072   1.254       .  A
O1062     Co1065   1.956       .  S
O1063      C1070   1.272       .  A
O1063     Co1068   2.018       .  S
O1064      C1071   1.261       .  A
O1064     Co1067   2.019       .  S
Co1065     O1069   2.096       .  S
Co1066     O1069   2.011       .  S
Co1067     O1069   2.132       .  S
Co1068     O1069   2.075       .  S
C1070      C2536   1.489       .  S
C1071      C2461   1.485       .  S
C1072      C2473   1.431       .  S
C1073      C2485   1.486       .  S
O1074      C1082   1.291       .  A
O1074     Co1094   2.070       .  S
O1075      C1083   1.277       .  A
O1075     Co1095   2.018       .  S
O1076      C1084   1.272       .  A
O1076     Co1096   1.980       .  S
O1077      C1085   1.252       .  A
O1077     Co1097   1.969       .  S
O1078      C1084   1.279       .  A
O1078     Co1095   2.027       .  S
O1079      C1085   1.261       .  A
O1079     Co1094   2.018       .  S
O1080      C1083   1.263       .  A
O1080     Co1097   1.965       .  S
O1081      C1082   1.274       .  A
O1081     Co1096   1.909       .  S
C1082      C4456   1.470       .  S
C1083      C2689   1.473       .  S
C1084      C4336   1.497       .  S
C1085      C2401   1.495       .  S
O1086      C1099   1.262       .  A
O1086     Co1094   1.953       .  S
O1087      C1100   1.258       .  A
O1087     Co1095   1.973       .  S
O1088      C1101   1.292       .  A
O1088     Co1096   2.098       .  S
O1089      C1102   1.265       .  A
O1089     Co1097   2.011       .  S
O1090      C1102   1.255       .  A
O1090     Co1095   1.955       .  S
O1091      C1101   1.262       .  A
O1091     Co1094   1.869       .  S
O1092      C1099   1.286       .  A
O1092     Co1097   2.073       .  S
O1093      C1100   1.272       .  A
O1093     Co1096   2.034       .  S
Co1094     O1098   1.980       .  S
Co1095     O1098   2.005       .  S
Co1096     O1098   2.020       .  S
Co1097     O1098   2.048       .  S
C1099      C2488   1.502       .  S
C1100      C2425   1.498       .  S
C1101      C2416   1.469       .  S
C1102      C2548   1.456       .  S
O1103      C1111   1.278       .  A
O1103     Co1123   2.028       .  S
O1104      C1112   1.260       .  A
O1104     Co1124   2.004       .  S
O1105      C1113   1.265       .  A
O1105     Co1125   1.892       .  S
O1106      C1114   1.262       .  A
O1106     Co1126   1.967       .  S
O1107      C1113   1.283       .  A
O1107     Co1124   2.069       .  S
O1108      C1114   1.273       .  A
O1108     Co1123   2.039       .  S
O1109      C1112   1.260       .  A
O1109     Co1126   1.986       .  S
O1110      C1111   1.271       .  A
O1110     Co1125   1.984       .  S
C1111      C2524   1.503       .  S
C1112      C2377   1.489       .  S
C1113      C2476   1.440       .  S
C1114      C2389   1.489       .  S
O1115      C1128   1.255       .  A
O1115     Co1123   1.948       .  S
O1116      C1129   1.259       .  A
O1116     Co1124   1.871       .  S
O1117      C1130   1.259       .  A
O1117     Co1125   2.014       .  S
O1118      C1131   1.281       .  A
O1118     Co1126   2.055       .  S
O1119      C1131   1.267       .  A
O1119     Co1124   1.979       .  S
O1120      C1130   1.257       .  A
O1120     Co1123   1.982       .  S
O1121      C1128   1.274       .  A
O1121     Co1126   2.032       .  S
O1122      C1129   1.303       .  A
O1122     Co1125   2.125       .  S
Co1123     O1127   2.035       .  S
Co1124     O1127   1.996       .  S
Co1125     O1127   2.029       .  S
Co1126     O1127   2.049       .  S
C1128      C2365   1.470       .  S
C1129      C4129   1.490       .  S
C1130      C4588   1.502       .  S
C1131      C2572   1.511       .  S
O1132      C1140   1.253       .  A
O1132     Co1152   1.939       .  S
O1133      C1141   1.280       .  A
O1133     Co1153   2.026       .  S
O1134      C1142   1.278       .  A
O1134     Co1154   2.037       .  S
O1135      C1143   1.273       .  A
O1135     Co1155   1.978       .  S
O1136      C1142   1.252       .  A
O1136     Co1153   1.991       .  S
O1137      C1143   1.281       .  A
O1137     Co1152   2.030       .  S
O1138      C1141   1.268       .  A
O1138     Co1155   1.967       .  S
O1139      C1140   1.300       .  A
O1139     Co1154   2.103       .  S
C1140      C2428   1.479       .  S
C1141      C2392   1.491       .  S
C1142      C2509   1.495       .  S
C1143      C2353   1.487       .  S
O1144      C1157   1.251       .  A
O1144     Co1152   1.970       .  S
O1145      C1158   1.292       .  A
O1145     Co1153   1.972       .  S
O1146      C1159   1.300       .  A
O1146     Co1154   2.097       .  S
O1147      C1160   1.271       .  A
O1147     Co1155   2.025       .  S
O1148      C1160   1.264       .  A
O1148     Co1153   1.994       .  S
O1149      C1159   1.273       .  A
O1149     Co1152   1.891       .  S
O1150      C1157   1.261       .  A
O1150     Co1155   2.011       .  S
O1151      C1158   1.287       .  A
O1151     Co1154   1.983       .  S
Co1152     O1156   1.902       .  S
Co1153     O1156   2.012       .  S
Co1154     O1156   2.051       .  S
Co1155     O1156   2.048       .  S
C1157      C2329   1.472       .  S
C1158      C3820   1.493       .  S
C1159      C4348   1.489       .  S
C1160      C2344   1.522       .  S
O1161      C1169   1.275       .  A
O1161     Co1181   1.925       .  S
O1162      C1170   1.263       .  A
O1162     Co1182   1.976       .  S
O1163      C1171   1.279       .  A
O1163     Co1183   2.016       .  S
O1164      C1172   1.263       .  A
O1164     Co1184   1.982       .  S
O1165      C1171   1.283       .  A
O1165     Co1182   1.956       .  S
O1166      C1172   1.265       .  A
O1166     Co1181   1.983       .  S
O1167      C1170   1.274       .  A
O1167     Co1184   2.034       .  S
O1168      C1169   1.297       .  A
O1168     Co1183   2.071       .  S
C1169      C4468   1.500       .  S
C1170      C2560   1.494       .  S
C1171      C3628   1.498       .  S
C1172      C2317   1.483       .  S
O1173      C1186   1.274       .  A
O1173     Co1181   2.013       .  S
O1174      C1187   1.243       .  A
O1174     Co1182   1.958       .  S
O1175      C1188   1.247       .  A
O1175     Co1183   1.924       .  S
O1176      C1189   1.262       .  A
O1176     Co1184   1.952       .  S
O1177      C1189   1.275       .  A
O1177     Co1182   2.019       .  S
O1178      C1188   1.264       .  A
O1178     Co1181   2.000       .  S
O1179      C1186   1.271       .  A
O1179     Co1184   1.988       .  S
O1180      C1187   1.267       .  A
O1180     Co1183   2.043       .  S
Co1181     O1185   1.937       .  S
Co1182     O1185   1.932       .  S
Co1183     O1185   2.121       .  S
Co1184     O1185   2.035       .  S
C1186      C2356   1.487       .  S
C1187      C2464   1.489       .  S
C1188      C2413   1.466       .  S
C1189      C2380   1.480       .  S
O1190      C1198   1.270       .  A
O1190     Co1210   1.908       .  S
O1191      C1199   1.256       .  A
O1191     Co1211   1.955       .  S
O1192      C1200   1.262       .  A
O1192     Co1212   2.032       .  S
O1193      C1201   1.277       .  A
O1193     Co1213   2.061       .  S
O1194      C1200   1.249       .  A
O1194     Co1211   1.969       .  S
O1195      C1201   1.257       .  A
O1195     Co1210   1.975       .  S
O1196      C1199   1.275       .  A
O1196     Co1213   2.039       .  S
O1197      C1198   1.293       .  A
O1197     Co1212   2.081       .  S
C1198      C4552   1.487       .  S
C1199      C2884   1.490       .  S
C1200      C3760   1.486       .  S
C1201      C2257   1.509       .  S
O1202      C1215   1.275       .  A
O1202     Co1210   2.060       .  S
O1203      C1216   1.281       .  A
O1203     Co1211   2.049       .  S
O1204      C1217   1.265       .  A
O1204     Co1212   1.916       .  S
O1205      C1218   1.254       .  A
O1205     Co1213   1.950       .  S
O1206      C1218   1.272       .  A
O1206     Co1211   2.036       .  S
O1207      C1217   1.288       .  A
O1207     Co1210   2.077       .  S
O1208      C1215   1.249       .  A
O1208     Co1213   1.958       .  S
O1209      C1216   1.265       .  A
O1209     Co1212   1.979       .  S
Co1210     O1214   2.044       .  S
Co1211     O1214   2.065       .  S
Co1212     O1214   2.061       .  S
Co1213     O1214   2.076       .  S
C1215      C2293   1.504       .  S
C1216      C2281   1.500       .  S
C1217      C2269   1.468       .  S
C1218      C2305   1.495       .  S
O1219      C1227   1.260       .  A
O1219     Co1239   1.952       .  S
O1220      C1228   1.273       .  A
O1220     Co1240   2.013       .  S
O1221      C1229   1.267       .  A
O1221     Co1241   2.034       .  S
O1222      C1230   1.256       .  A
O1222     Co1242   1.999       .  S
O1223      C1229   1.262       .  A
O1223     Co1240   2.011       .  S
O1224      C1230   1.256       .  A
O1224     Co1239   1.983       .  S
O1225      C1228   1.273       .  A
O1225     Co1242   1.998       .  S
O1226      C1227   1.264       .  A
O1226     Co1241   1.993       .  S
C1227      C2221   1.470       .  S
C1228      C2308   1.490       .  S
C1229      C2209   1.518       .  S
C1230      C2248   1.475       .  S
O1231      C1244   1.277       .  A
O1231     Co1239   2.015       .  S
O1232      C1245   1.278       .  A
O1232     Co1240   1.953       .  S
O1233      C1246   1.262       .  A
O1233     Co1241   1.954       .  S
O1234      C1247   1.248       .  A
O1234     Co1242   1.964       .  S
O1235      C1247   1.262       .  A
O1235     Co1240   2.019       .  S
O1236      C1246   1.280       .  A
O1236     Co1239   2.054       .  S
O1237      C1244   1.273       .  A
O1237     Co1242   1.981       .  S
O1238      C1245   1.285       .  A
O1238     Co1241   2.032       .  S
Co1239     O1243   2.063       .  S
Co1240     O1243   1.982       .  S
Co1241     O1243   2.097       .  S
Co1242     O1243   2.079       .  S
C1244      C2404   1.492       .  S
C1245      C2233   1.486       .  S
C1246      C4432   1.500       .  S
C1247      C2944   1.499       .  S
O1248      C1256   1.273       .  A
O1248     Co1268   1.940       .  S
O1249      C1257   1.271       .  A
O1249     Co1269   2.029       .  S
O1250      C1258   1.248       .  A
O1250     Co1270   1.895       .  S
O1251      C1259   1.267       .  A
O1251     Co1271   2.032       .  S
O1252      C1258   1.273       .  A
O1252     Co1269   2.035       .  S
O1253      C1259   1.266       .  A
O1253     Co1268   2.022       .  S
O1254      C1257   1.257       .  A
O1254     Co1271   1.941       .  S
O1255      C1256   1.261       .  A
O1255     Co1270   1.955       .  S
C1256      C2197   1.460       .  S
C1257      C2245   1.487       .  S
C1258      C2185   1.471       .  S
C1259      C2296   1.521       .  S
O1260      C1273   1.268       .  A
O1260     Co1268   1.996       .  S
O1261      C1274   1.257       .  A
O1261     Co1269   1.993       .  S
O1262      C1275   1.246       .  A
O1262     Co1270   1.977       .  S
O1263      C1276   1.266       .  A
O1263     Co1271   2.030       .  S
O1264      C1276   1.235       .  A
O1264     Co1269   1.922       .  S
O1265      C1275   1.255       .  A
O1265     Co1268   1.997       .  S
O1266      C1273   1.266       .  A
O1266     Co1271   1.969       .  S
O1267      C1274   1.252       .  A
O1267     Co1270   1.968       .  S
Co1268     O1272   1.994       .  S
Co1269     O1272   2.093       .  S
Co1270     O1272   2.056       .  S
Co1271     O1272   2.095       .  S
C1273      C2173   1.478       .  S
C1274      C3640   1.491       .  S
C1275      C3925   1.466       .  S
C1276      C2452   1.464       .  S
O1277      C1285   1.264       .  A
O1277     Co1297   1.903       .  S
O1278      C1286   1.255       .  A
O1278     Co1298   1.959       .  S
O1279      C1287   1.257       .  A
O1279     Co1299   2.004       .  S
O1280      C1288   1.285       .  A
O1280     Co1300   2.078       .  S
O1281      C1287   1.252       .  A
O1281     Co1298   1.962       .  S
O1282      C1288   1.253       .  A
O1282     Co1297   1.951       .  S
O1283      C1286   1.269       .  A
O1283     Co1300   2.031       .  S
O1284      C1285   1.286       .  A
O1284     Co1299   2.082       .  S
C1285      C2224   1.468       .  S
C1286      C2149   1.488       .  S
C1287      C2188   1.465       .  S
C1288      C2161   1.509       .  S
O1289      C1302   1.263       .  A
O1289     Co1297   2.010       .  S
O1290      C1303   1.280       .  A
O1290     Co1298   2.022       .  S
O1291      C1304   1.265       .  A
O1291     Co1299   1.906       .  S
O1292      C1305   1.267       .  A
O1292     Co1300   1.984       .  S
O1293      C1305   1.279       .  A
O1293     Co1298   2.041       .  S
O1294      C1304   1.293       .  A
O1294     Co1297   2.092       .  S
O1295      C1302   1.254       .  A
O1295     Co1300   1.968       .  S
O1296      C1303   1.268       .  A
O1296     Co1299   1.959       .  S
Co1297     O1301   2.014       .  S
Co1298     O1301   2.016       .  S
Co1299     O1301   2.040       .  S
Co1300     O1301   2.060       .  S
C1302      C2137   1.473       .  S
C1303      C3652   1.471       .  S
C1304      C4444   1.480       .  S
C1305      C2752   1.517       .  S
O1306      C1314   1.268       .  A
O1306     Co1326   2.009       .  S
O1307      C1315   1.269       .  A
O1307     Co1327   2.025       .  S
O1308      C1316   1.268       .  A
O1308     Co1328   1.976       .  S
O1309      C1317   1.250       .  A
O1309     Co1329   1.938       .  S
O1310      C1316   1.276       .  A
O1310     Co1327   2.042       .  S
O1311      C1317   1.273       .  A
O1311     Co1326   2.057       .  S
O1312      C1315   1.253       .  A
O1312     Co1329   1.956       .  S
O1313      C1314   1.262       .  A
O1313     Co1328   1.965       .  S
C1314      C4561   1.474       .  S
C1315      C2764   1.477       .  S
C1316      C3937   1.508       .  S
C1317      C2368   1.489       .  S
O1318      C1331   1.246       .  A
O1318     Co1326   1.938       .  S
O1319      C1332   1.260       .  A
O1319     Co1327   1.949       .  S
O1320      C1333   1.274       .  A
O1320     Co1328   2.040       .  S
O1321      C1334   1.269       .  A
O1321     Co1329   2.038       .  S
O1322      C1334   1.259       .  A
O1322     Co1327   1.960       .  S
O1323      C1333   1.254       .  A
O1323     Co1326   1.951       .  S
O1324      C1331   1.279       .  A
O1324     Co1329   2.090       .  S
O1325      C1332   1.259       .  A
O1325     Co1328   1.996       .  S
Co1326     O1330   2.098       .  S
Co1327     O1330   2.097       .  S
Co1328     O1330   2.126       .  S
Co1329     O1330   2.112       .  S
C1331      C2125   1.498       .  S
C1332      C2200   1.468       .  S
C1333      C2272   1.479       .  S
C1334      C2152   1.490       .  S
O1335      C1343   1.308       .  A
O1335     Co1355   2.146       .  S
O1336      C1344   1.273       .  A
O1336     Co1356   2.041       .  S
O1337      C1345   1.269       .  A
O1337     Co1357   1.994       .  S
O1338      C1346   1.246       .  A
O1338     Co1358   1.956       .  S
O1339      C1345   1.278       .  A
O1339     Co1356   2.048       .  S
O1340      C1346   1.272       .  A
O1340     Co1355   2.057       .  S
O1341      C1344   1.246       .  A
O1341     Co1358   1.917       .  S
O1342      C1343   1.258       .  A
O1342     Co1357   1.881       .  S
C1343      C2284   1.511       .  S
C1344      C2164   1.472       .  S
C1345      C2212   1.518       .  S
C1346      C2128   1.508       .  S
O1347      C1360   1.269       .  A
O1347     Co1355   2.008       .  S
O1348      C1361   1.248       .  A
O1348     Co1356   1.968       .  S
O1349      C1362   1.301       .  A
O1349     Co1357   2.111       .  S
O1350      C1363   1.275       .  A
O1350     Co1358   2.045       .  S
O1351      C1363   1.252       .  A
O1351     Co1356   1.951       .  S
O1352      C1362   1.268       .  A
O1352     Co1355   1.889       .  S
O1353      C1360   1.271       .  A
O1353     Co1358   2.025       .  S
O1354      C1361   1.259       .  A
O1354     Co1357   2.020       .  S
Co1355     O1359   2.067       .  S
Co1356     O1359   2.079       .  S
Co1357     O1359   2.047       .  S
Co1358     O1359   2.079       .  S
C1360      C2341   1.522       .  S
C1361      C2113   1.487       .  S
C1362      C3769   1.491       .  S
C1363      C2101   1.502       .  S
O1364      C1372   1.251       .  A
O1364     Co1384   1.977       .  S
O1365      C1373   1.260       .  A
O1365     Co1385   1.985       .  S
O1366      C1374   1.296       .  A
O1366     Co1386   2.095       .  S
O1367      C1375   1.274       .  A
O1367     Co1387   2.027       .  S
O1368      C1374   1.266       .  A
O1368     Co1385   1.884       .  S
O1369      C1375   1.253       .  A
O1369     Co1384   1.956       .  S
O1370      C1373   1.272       .  A
O1370     Co1387   2.031       .  S
O1371      C1372   1.258       .  A
O1371     Co1386   2.014       .  S
C1372      C4600   1.501       .  S
C1373      C3145   1.491       .  S
C1374      C4285   1.474       .  S
C1375      C2500   1.489       .  S
O1376      C1389   1.272       .  A
O1376     Co1384   2.029       .  S
O1377      C1390   1.294       .  A
O1377     Co1385   2.104       .  S
O1378      C1391   1.268       .  A
O1378     Co1386   1.981       .  S
O1379      C1392   1.248       .  A
O1379     Co1387   1.945       .  S
O1380      C1392   1.266       .  A
O1380     Co1385   2.029       .  S
O1381      C1391   1.283       .  A
O1381     Co1384   2.043       .  S
O1382      C1389   1.250       .  A
O1382     Co1387   1.924       .  S
O1383      C1390   1.259       .  A
O1383     Co1386   1.887       .  S
Co1384     O1388   2.044       .  S
Co1385     O1388   2.028       .  S
Co1386     O1388   2.022       .  S
Co1387     O1388   2.063       .  S
C1389      C2089   1.463       .  S
C1390      C2065   1.478       .  S
C1391      C2053   1.509       .  S
C1392      C2077   1.470       .  S
O1393      C1401   1.297       .  A
O1393     Co1413   2.092       .  S
O1394      C1402   1.291       .  A
O1394     Co1414   2.068       .  S
O1395      C1403   1.248       .  A
O1395     Co1415   1.983       .  S
O1396      C1404   1.267       .  A
O1396     Co1416   2.017       .  S
O1397      C1403   1.247       .  A
O1397     Co1414   1.974       .  S
O1398      C1404   1.261       .  A
O1398     Co1413   2.002       .  S
O1399      C1402   1.270       .  A
O1399     Co1416   1.906       .  S
O1400      C1401   1.258       .  A
O1400     Co1415   1.851       .  S
C1401      C4216   1.454       .  S
C1402      C2440   1.472       .  S
C1403      C4096   1.471       .  S
C1404      C2005   1.511       .  S
O1405      C1418   1.253       .  A
O1405     Co1413   1.956       .  S
O1406      C1419   1.269       .  A
O1406     Co1414   2.013       .  S
O1407      C1420   1.287       .  A
O1407     Co1415   2.057       .  S
O1408      C1421   1.271       .  A
O1408     Co1416   2.037       .  S
O1409      C1421   1.246       .  A
O1409     Co1414   1.918       .  S
O1410      C1420   1.248       .  A
O1410     Co1413   1.947       .  S
O1411      C1418   1.274       .  A
O1411     Co1416   2.046       .  S
O1412      C1419   1.285       .  A
O1412     Co1415   2.040       .  S
Co1413     O1417   2.128       .  S
Co1414     O1417   2.126       .  S
Co1415     O1417   1.959       .  S
Co1416     O1417   1.997       .  S
C1418      C2041   1.478       .  S
C1419      C2029   1.507       .  S
C1420      C2020   1.491       .  S
C1421      C2092   1.477       .  S
O1422      C1430   1.266       .  A
O1422     Co1442   1.978       .  S
O1423      C1431   1.239       .  A
O1423     Co1443   1.913       .  S
O1424      C1432   1.271       .  A
O1424     Co1444   2.046       .  S
O1425      C1433   1.267       .  A
O1425     Co1445   2.030       .  S
O1426      C1432   1.254       .  A
O1426     Co1443   1.956       .  S
O1427      C1433   1.261       .  A
O1427     Co1442   1.974       .  S
O1428      C1431   1.280       .  A
O1428     Co1445   2.089       .  S
O1429      C1430   1.271       .  A
O1429     Co1444   2.022       .  S
C1430      C1993   1.494       .  S
C1431      C2080   1.496       .  S
C1432      C1981   1.484       .  S
C1433      C2044   1.483       .  S
O1434      C1447   1.277       .  A
O1434     Co1442   2.042       .  S
O1435      C1448   1.269       .  A
O1435     Co1443   1.998       .  S
O1436      C1449   1.264       .  A
O1436     Co1444   1.975       .  S
O1437      C1450   1.253       .  A
O1437     Co1445   1.960       .  S
O1438      C1450   1.274       .  A
O1438     Co1443   2.064       .  S
O1439      C1449   1.271       .  A
O1439     Co1442   2.018       .  S
O1440      C1447   1.261       .  A
O1440     Co1445   1.971       .  S
O1441      C1448   1.265       .  A
O1441     Co1444   1.978       .  S
Co1442     O1446   2.106       .  S
Co1443     O1446   2.079       .  S
Co1444     O1446   2.120       .  S
Co1445     O1446   2.120       .  S
C1447      C1969   1.506       .  S
C1448      C4408   1.490       .  S
C1449      C4480   1.491       .  S
C1450      C3196   1.494       .  S
O1451      C1459   1.293       .  A
O1451     Co1471   2.074       .  S
O1452      C1460   1.281       .  A
O1452     Co1472   2.053       .  S
O1453      C1461   1.274       .  A
O1453     Co1473   1.989       .  S
O1454      C1462   1.252       .  A
O1454     Co1474   1.968       .  S
O1455      C1461   1.281       .  A
O1455     Co1472   2.029       .  S
O1456      C1462   1.261       .  A
O1456     Co1471   2.010       .  S
O1457      C1460   1.258       .  A
O1457     Co1474   1.934       .  S
O1458      C1459   1.267       .  A
O1458     Co1473   1.882       .  S
C1459      C4420   1.458       .  S
C1460      C1936   1.480       .  S
C1461      C4297   1.503       .  S
C1462      C2332   1.491       .  S
O1463      C1476   1.258       .  A
O1463     Co1471   1.951       .  S
O1464      C1477   1.254       .  A
O1464     Co1472   1.978       .  S
O1465      C1478   1.296       .  A
O1465     Co1473   2.118       .  S
O1466      C1479   1.264       .  A
O1466     Co1474   2.036       .  S
O1467      C1479   1.243       .  A
O1467     Co1472   1.942       .  S
O1468      C1478   1.261       .  A
O1468     Co1471   1.904       .  S
O1469      C1476   1.279       .  A
O1469     Co1474   2.052       .  S
O1470      C1477   1.261       .  A
O1470     Co1473   2.007       .  S
Co1471     O1475   1.997       .  S
Co1472     O1475   1.999       .  S
Co1473     O1475   2.021       .  S
Co1474     O1475   2.075       .  S
C1476      C1957   1.490       .  S
C1477      C2068   1.487       .  S
C1478      C1984   1.493       .  S
C1479      C1945   1.465       .  S
O1480      C1488   1.278       .  A
O1480     Co1500   2.021       .  S
O1481      C1489   1.263       .  A
O1481     Co1501   2.025       .  S
O1482      C1490   1.263       .  A
O1482     Co1502   1.899       .  S
O1483      C1491   1.252       .  A
O1483     Co1503   1.932       .  S
O1484      C1490   1.292       .  A
O1484     Co1501   2.100       .  S
O1485      C1491   1.275       .  A
O1485     Co1500   2.046       .  S
O1486      C1489   1.249       .  A
O1486     Co1503   1.946       .  S
O1487      C1488   1.268       .  A
O1487     Co1502   1.979       .  S
C1488      C1996   1.496       .  S
C1489      C1924   1.485       .  S
C1490      C2017   1.478       .  S
C1491      C1960   1.483       .  S
O1492      C1505   1.257       .  A
O1492     Co1500   1.955       .  S
O1493      C1506   1.263       .  A
O1493     Co1501   1.882       .  S
O1494      C1507   1.260       .  A
O1494     Co1502   2.004       .  S
O1495      C1508   1.276       .  A
O1495     Co1503   2.042       .  S
O1496      C1508   1.262       .  A
O1496     Co1501   1.967       .  S
O1497      C1507   1.260       .  A
O1497     Co1500   1.990       .  S
O1498      C1505   1.269       .  A
O1498     Co1503   2.017       .  S
O1499      C1506   1.295       .  A
O1499     Co1502   2.111       .  S
Co1500     O1504   2.044       .  S
Co1501     O1504   2.017       .  S
Co1502     O1504   2.021       .  S
Co1503     O1504   2.051       .  S
C1505      C2320   1.487       .  S
C1506      C4228   1.495       .  S
C1507      C4492   1.498       .  S
C1508      C3016   1.484       .  S
O1509      C1517   1.298       .  A
O1509     Co1529   2.090       .  S
O1510      C1518   1.250       .  A
O1510     Co1530   2.007       .  S
O1511      C1519   1.296       .  A
O1511     Co1531   2.087       .  S
O1512      C1520   1.273       .  A
O1512     Co1532   2.004       .  S
O1513      C1519   1.261       .  A
O1513     Co1530   1.875       .  S
O1514      C1520   1.273       .  A
O1514     Co1529   2.018       .  S
O1515      C1518   1.250       .  A
O1515     Co1532   1.988       .  S
O1516      C1517   1.269       .  A
O1516     Co1531   1.884       .  S
C1517      C4612   1.485       .  S
C1518      C3064   1.489       .  S
C1519      C4108   1.456       .  S
C1520      C1909   1.507       .  S
O1521      C1534   1.257       .  A
O1521     Co1529   1.967       .  S
O1522      C1535   1.257       .  A
O1522     Co1530   1.948       .  S
O1523      C1536   1.288       .  A
O1523     Co1531   2.092       .  S
O1524      C1537   1.273       .  A
O1524     Co1532   1.985       .  S
O1525      C1537   1.268       .  A
O1525     Co1530   1.995       .  S
O1526      C1536   1.253       .  A
O1526     Co1529   1.966       .  S
O1527      C1534   1.258       .  A
O1527     Co1532   1.988       .  S
O1528      C1535   1.298       .  A
O1528     Co1531   2.101       .  S
Co1529     O1533   2.099       .  S
Co1530     O1533   1.933       .  S
Co1531     O1533   2.018       .  S
Co1532     O1533   2.100       .  S
C1534      C1948   1.468       .  S
C1535      C2032   1.501       .  S
C1536      C2056   1.500       .  S
C1537      C1921   1.474       .  S
O1538      C1546   1.259       .  A
O1538     Co1558   1.971       .  S
O1539      C1547   1.265       .  A
O1539     Co1559   1.971       .  S
O1540      C1548   1.298       .  A
O1540     Co1560   2.133       .  S
O1541      C1549   1.265       .  A
O1541     Co1561   2.028       .  S
O1542      C1548   1.258       .  A
O1542     Co1559   1.887       .  S
O1543      C1549   1.252       .  A
O1543     Co1558   1.961       .  S
O1544      C1547   1.285       .  A
O1544     Co1561   2.073       .  S
O1545      C1546   1.262       .  A
O1545     Co1560   2.002       .  S
C1546      C1873   1.486       .  S
C1547      C1897   1.518       .  S
C1548      C1861   1.476       .  S
C1549      C1885   1.479       .  S
O1550      C1563   1.285       .  A
O1550     Co1558   2.060       .  S
O1551      C1564   1.302       .  A
O1551     Co1559   2.119       .  S
O1552      C1565   1.280       .  A
O1552     Co1560   2.007       .  S
O1553      C1566   1.253       .  A
O1553     Co1561   1.969       .  S
O1554      C1566   1.257       .  A
O1554     Co1559   1.986       .  S
O1555      C1565   1.277       .  A
O1555     Co1558   2.025       .  S
O1556      C1563   1.267       .  A
O1556     Co1561   1.975       .  S
O1557      C1564   1.272       .  A
O1557     Co1560   1.898       .  S
Co1558     O1562   2.013       .  S
Co1559     O1562   2.012       .  S
Co1560     O1562   2.037       .  S
Co1561     O1562   2.076       .  S
C1563      C2008   1.507       .  S
C1564      C3904   1.498       .  S
C1565      C4189   1.511       .  S
C1566      C2176   1.468       .  S
O1567      C1575   1.280       .  A
O1567     Co1587   2.037       .  S
O1568      C1576   1.275       .  A
O1568     Co1588   2.041       .  S
O1569      C1577   1.262       .  A
O1569     Co1589   1.875       .  S
O1570      C1578   1.268       .  A
O1570     Co1590   1.979       .  S
O1571      C1577   1.302       .  A
O1571     Co1588   2.117       .  S
O1572      C1578   1.276       .  A
O1572     Co1587   2.036       .  S
O1573      C1576   1.264       .  A
O1573     Co1590   1.993       .  S
O1574      C1575   1.265       .  A
O1574     Co1589   1.962       .  S
C1575      C4504   1.481       .  S
C1576      C3388   1.516       .  S
C1577      C1837   1.476       .  S
C1578      C1972   1.511       .  S
O1579      C1592   1.253       .  A
O1579     Co1587   1.948       .  S
O1580      C1593   1.273       .  A
O1580     Co1588   1.913       .  S
O1581      C1594   1.265       .  A
O1581     Co1589   2.026       .  S
O1582      C1595   1.279       .  A
O1582     Co1590   2.044       .  S
O1583      C1595   1.269       .  A
O1583     Co1588   1.978       .  S
O1584      C1594   1.258       .  A
O1584     Co1587   1.999       .  S
O1585      C1592   1.274       .  A
O1585     Co1590   2.043       .  S
O1586      C1593   1.286       .  A
O1586     Co1589   2.078       .  S
Co1587     O1591   2.029       .  S
Co1588     O1591   2.016       .  S
Co1589     O1591   2.001       .  S
Co1590     O1591   2.059       .  S
C1592      C1888   1.477       .  S
C1593      C1816   1.480       .  S
C1594      C1825   1.492       .  S
C1595      C1849   1.499       .  S
O1596      C1604   1.269       .  A
O1596     Co1616   1.908       .  S
O1597      C1605   1.252       .  A
O1597     Co1617   1.955       .  S
O1598      C1606   1.267       .  A
O1598     Co1618   2.003       .  S
O1599      C1607   1.285       .  A
O1599     Co1619   2.061       .  S
O1600      C1606   1.254       .  A
O1600     Co1617   1.958       .  S
O1601      C1607   1.267       .  A
O1601     Co1616   1.975       .  S
O1602      C1605   1.273       .  A
O1602     Co1619   2.058       .  S
O1603      C1604   1.294       .  A
O1603     Co1618   2.118       .  S
C1604      C1792   1.505       .  S
C1605      C1852   1.504       .  S
C1606      C1801   1.473       .  S
C1607      C1900   1.518       .  S
O1608      C1621   1.272       .  A
O1608     Co1616   2.041       .  S
O1609      C1622   1.275       .  A
O1609     Co1617   2.023       .  S
O1610      C1623   1.272       .  A
O1610     Co1618   1.907       .  S
O1611      C1624   1.262       .  A
O1611     Co1619   1.965       .  S
O1612      C1624   1.279       .  A
O1612     Co1617   2.043       .  S
O1613      C1623   1.301       .  A
O1613     Co1616   2.110       .  S
O1614      C1621   1.256       .  A
O1614     Co1619   1.982       .  S
O1615      C1622   1.277       .  A
O1615     Co1618   1.999       .  S
Co1616     O1620   2.023       .  S
Co1617     O1620   2.028       .  S
Co1618     O1620   2.027       .  S
Co1619     O1620   2.058       .  S
C1621      C2260   1.502       .  S
C1622      C4264   1.509       .  S
C1623      C4528   1.494       .  S
C1624      C3508   1.500       .  S
O1625      C1633   1.260       .  A
O1625     Co1645   1.985       .  S
O1626      C1634   1.265       .  A
O1626     Co1646   1.982       .  S
O1627      C1635   1.294       .  A
O1627     Co1647   2.093       .  S
O1628      C1636   1.270       .  A
O1628     Co1648   2.019       .  S
O1629      C1635   1.267       .  A
O1629     Co1646   1.881       .  S
O1630      C1636   1.254       .  A
O1630     Co1645   1.955       .  S
O1631      C1634   1.282       .  A
O1631     Co1648   2.054       .  S
O1632      C1633   1.262       .  A
O1632     Co1647   2.017       .  S
C1633      C4516   1.502       .  S
C1634      C3280   1.516       .  S
C1635      C4204   1.471       .  S
C1636      C2140   1.472       .  S
O1637      C1650   1.273       .  A
O1637     Co1645   2.027       .  S
O1638      C1651   1.294       .  A
O1638     Co1646   2.099       .  S
O1639      C1652   1.272       .  A
O1639     Co1647   1.988       .  S
O1640      C1653   1.258       .  A
O1640     Co1648   1.979       .  S
O1641      C1653   1.267       .  A
O1641     Co1646   2.024       .  S
O1642      C1652   1.280       .  A
O1642     Co1645   2.030       .  S
O1643      C1650   1.262       .  A
O1643     Co1648   1.952       .  S
O1644      C1651   1.263       .  A
O1644     Co1647   1.879       .  S
Co1645     O1649   2.041       .  S
Co1646     O1649   2.014       .  S
Co1647     O1649   2.000       .  S
Co1648     O1649   2.051       .  S
C1650      C1765   1.472       .  S
C1651      C1876   1.465       .  S
C1652      C1828   1.495       .  S
C1653      C1777   1.498       .  S
O1654      C1662   1.270       .  A
O1654     Co1674   2.030       .  S
O1655      C1663   1.273       .  A
O1655     Co1675   1.995       .  S
O1656      C1664   1.281       .  A
O1656     Co1676   2.046       .  S
O1657      C1665   1.275       .  A
O1657     Co1677   2.050       .  S
O1658      C1664   1.263       .  A
O1658     Co1675   1.901       .  S
O1659      C1665   1.249       .  A
O1659     Co1674   1.927       .  S
O1660      C1663   1.268       .  A
O1660     Co1677   2.011       .  S
O1661      C1662   1.244       .  A
O1661     Co1676   1.944       .  S
C1662      C4273   1.499       .  S
C1663      C2104   1.509       .  S
C1664      C1741   1.467       .  S
C1665      C1933   1.469       .  S
O1666      C1679   1.268       .  A
O1666     Co1674   2.032       .  S
O1667      C1680   1.277       .  A
O1667     Co1675   2.055       .  S
O1668      C1681   1.269       .  A
O1668     Co1676   1.996       .  S
O1669      C1682   1.252       .  A
O1669     Co1677   1.959       .  S
O1670      C1682   1.260       .  A
O1670     Co1675   2.019       .  S
O1671      C1681   1.260       .  A
O1671     Co1674   1.959       .  S
O1672      C1679   1.248       .  A
O1672     Co1677   1.959       .  S
O1673      C1680   1.239       .  A
O1673     Co1676   1.908       .  S
Co1674     O1678   2.081       .  S
Co1675     O1678   2.004       .  S
Co1676     O1678   2.071       .  S
Co1677     O1678   2.069       .  S
C1679      C1753   1.499       .  S
C1680      C1813   1.486       .  S
C1681      C1804   1.453       .  S
C1682      C1768   1.474       .  S
O1683      C1691   1.268       .  A
O1683     Co1703   1.919       .  S
O1684      C1692   1.249       .  A
O1684     Co1704   1.942       .  S
O1685      C1693   1.265       .  A
O1685     Co1705   2.019       .  S
O1686      C1694   1.280       .  A
O1686     Co1706   2.043       .  S
O1687      C1693   1.250       .  A
O1687     Co1704   1.961       .  S
O1688      C1694   1.265       .  A
O1688     Co1703   1.966       .  S
O1689      C1692   1.275       .  A
O1689     Co1706   2.061       .  S
O1690      C1691   1.290       .  A
O1690     Co1705   2.096       .  S
C1691      C1789   1.496       .  S
C1692      C1780   1.497       .  S
C1693      C1864   1.489       .  S
C1694      C1756   1.484       .  S
O1695      C1708   1.269       .  A
O1695     Co1703   2.025       .  S
O1696      C1709   1.276       .  A
O1696     Co1704   2.027       .  S
O1697      C1710   1.267       .  A
O1697     Co1705   1.897       .  S
O1698      C1711   1.261       .  A
O1698     Co1706   1.959       .  S
O1699      C1711   1.276       .  A
O1699     Co1704   2.039       .  S
O1700      C1710   1.293       .  A
O1700     Co1703   2.083       .  S
O1701      C1708   1.259       .  A
O1701     Co1706   1.992       .  S
O1702      C1709   1.265       .  A
O1702     Co1705   1.969       .  S
Co1703     O1707   2.020       .  S
Co1704     O1707   2.030       .  S
Co1705     O1707   2.033       .  S
Co1706     O1707   2.061       .  S
C1708      C1912   1.506       .  S
C1709      C3916   1.479       .  S
C1710      C4537   1.475       .  S
C1711      C3256   1.507       .  S
O1712      C1720   1.264       .  A
O1712     Co1732   1.970       .  S
O1713      C1721   1.270       .  A
O1713     Co1733   1.975   1_565  S
O1714      C1722   1.292       .  A
O1714     Co1734   2.115       .  S
O1715      C1723   1.272       .  A
O1715     Co1735   2.005       .  S
O1716      C1722   1.274       .  A
O1716     Co1733   1.895       .  S
O1717      C1723   1.269       .  A
O1717     Co1732   1.983   1_565  S
O1718      C1721   1.275       .  A
O1718     Co1735   2.007       .  S
O1719      C1720   1.274       .  A
O1719     Co1734   2.016       .  S
C1720      C3421   1.472       .  S
C1721      C2236   1.479       .  S
C1722      C1840   1.490       .  S
C1723      C2980   1.488       .  S
O1724      C1737   1.275       .  A
O1724     Co1732   2.003   1_565  S
O1725      C1738   1.293       .  A
O1725     Co1733   2.110       .  S
O1726      C1739   1.272       .  A
O1726     Co1734   1.984       .  S
O1727      C1740   1.266       .  A
O1727     Co1735   1.977       .  S
O1728      C1740   1.275       .  A
O1728     Co1733   2.028   1_565  S
O1729      C1739   1.277       .  A
O1729     Co1732   2.011       .  S
O1730      C1737   1.266       .  A
O1730     Co1735   1.973       .  S
O1731      C1738   1.274       .  A
O1731     Co1734   1.903       .  S
Co1732     O1736   2.015   1_545  S
Co1733     O1736   1.985   1_545  S
Co1734     O1736   1.986   1_545  S
Co1735     O1736   2.016       .  S
C1737      C2812   1.489       .  S
C1738      C1744   1.480       .  S
C1739      C3340   1.481       .  S
C1740      C2116   1.489       .  S
C1741      C1742   1.391       .  A
C1741      C1746   1.413       .  A
C1742      C1743   1.391       .  A
C1742      H1751   1.083       .  S
C1743      C1744   1.419       .  A
C1743      S1747   1.797       .  S
C1744      C1745   1.403       .  A
C1745      C1746   1.405       .  A
C1745      H1752   1.084       .  S
C1746      S1748   1.800       .  S
S1747      H1750   1.407       .  S
S1748      H1749   1.407       .  S
C1753      C1754   1.405       .  A
C1753      C1758   1.426       .  A
C1754      C1755   1.405       .  A
C1754      H1763   1.083       .  S
C1755      C1756   1.412       .  A
C1755      S1759   1.803       .  S
C1756      C1757   1.397       .  A
C1757      C1758   1.408       .  A
C1757      H1764   1.080       .  S
C1758      S1760   1.812       .  S
S1759      H1762   1.407       .  S
S1760      H1761   1.406       .  S
C1765      C1766   1.405       .  A
C1765      C1770   1.411       .  A
C1766      C1767   1.410       .  A
C1766      H1775   1.083       .  S
C1767      C1768   1.410       .  A
C1767      S1771   1.801       .  S
C1768      C1769   1.401       .  A
C1769      C1770   1.391       .  A
C1769      H1776   1.085       .  S
C1770      S1772   1.805       .  S
S1771      H1774   1.407       .  S
S1772      H1773   1.405       .  S
C1777      C1778   1.413       .  A
C1777      C1782   1.412       .  A
C1778      C1779   1.410       .  A
C1778      H1787   1.084       .  S
C1779      C1780   1.411       .  A
C1779      S1783   1.798       .  S
C1780      C1781   1.411       .  A
C1781      C1782   1.406       .  A
C1781      H1788   1.083       .  S
C1782      S1784   1.808       .  S
S1783      H1786   1.405       .  S
S1784      H1785   1.406       .  S
C1789      C1790   1.403       .  A
C1789      C1794   1.419       .  A
C1790      C1791   1.409       .  A
C1790      H1799   1.082       .  S
C1791      C1792   1.425       .  A
C1791      S1795   1.807       .  S
C1792      C1793   1.406       .  A
C1793      C1794   1.407       .  A
C1793      H1800   1.082       .  S
C1794      S1796   1.808       .  S
S1795      H1798   1.407       .  S
S1796      H1797   1.407       .  S
C1801      C1802   1.402       .  A
C1801      C1806   1.420       .  A
C1802      C1803   1.393       .  A
C1802      H1811   1.083       .  S
C1803      C1804   1.403       .  A
C1803      S1807   1.804       .  S
C1804      C1805   1.397       .  A
C1805      C1806   1.396       .  A
C1805      H1812   1.084       .  S
C1806      S1808   1.802       .  S
S1807      H1810   1.406       .  S
S1808      H1809   1.408       .  S
C1813      C1814   1.396       .  A
C1813      C1818   1.429       .  A
C1814      C1815   1.398       .  A
C1814      H1823   1.079       .  S
C1815      C1816   1.419       .  A
C1815      S1819   1.807       .  S
C1816      C1817   1.396       .  A
C1817      C1818   1.402       .  A
C1817      H1824   1.083       .  S
C1818      S1820   1.811       .  S
S1819      H1822   1.407       .  S
S1820      H1821   1.407       .  S
C1825      C1826   1.410       .  A
C1825      C1830   1.409       .  A
C1826      C1827   1.415       .  A
C1826      H1835   1.084       .  S
C1827      C1828   1.416       .  A
C1827      S1831   1.802       .  S
C1828      C1829   1.406       .  A
C1829      C1830   1.401       .  A
C1829      H1836   1.083       .  S
C1830      S1832   1.804       .  S
S1831      H1834   1.407       .  S
S1832      H1833   1.407       .  S
C1837      C1838   1.396       .  A
C1837      C1842   1.415       .  A
C1838      C1839   1.399       .  A
C1838      H1847   1.083       .  S
C1839      C1840   1.424       .  A
C1839      S1843   1.808       .  S
C1840      C1841   1.404       .  A
C1841      C1842   1.402       .  A
C1841      H1848   1.083       .  S
C1842      S1844   1.803       .  S
S1843      H1846   1.407       .  S
S1844      H1845   1.407       .  S
C1849      C1850   1.411       .  A
C1849      C1854   1.413       .  A
C1850      C1851   1.414       .  A
C1850      H1859   1.084       .  S
C1851      C1852   1.417       .  A
C1851      S1855   1.797       .  S
C1852      C1853   1.407       .  A
C1853      C1854   1.403       .  A
C1853      H1860   1.081       .  S
C1854      S1856   1.810       .  S
S1855      H1858   1.406       .  S
S1856      H1857   1.407       .  S
C1861      C1862   1.397       .  A
C1861      C1866   1.415       .  A
C1862      C1863   1.400       .  A
C1862      H1871   1.083       .  S
C1863      C1864   1.424       .  A
C1863      S1867   1.812       .  S
C1864      C1865   1.405       .  A
C1865      C1866   1.404       .  A
C1865      H1872   1.083       .  S
C1866      S1868   1.809       .  S
S1867      H1870   1.407       .  S
S1868      H1869   1.407       .  S
C1873      C1874   1.409       .  A
C1873      C1878   1.418       .  A
C1874      C1875   1.392       .  A
C1874      H1883   1.084       .  S
C1875      C1876   1.405       .  A
C1875      S1879   1.802       .  S
C1876      C1877   1.402       .  A
C1877      C1878   1.401       .  A
C1877      H1884   1.084       .  S
C1878      S1880   1.801       .  S
S1879      H1882   1.406       .  S
S1880      H1881   1.407       .  S
C1885      C1886   1.400       .  A
C1885      C1890   1.417       .  A
C1886      C1887   1.395       .  A
C1886      H1895   1.084       .  S
C1887      C1888   1.412       .  A
C1887      S1891   1.809       .  S
C1888      C1889   1.405       .  A
C1889      C1890   1.411       .  A
C1889      H1896   1.084       .  S
C1890      S1892   1.802       .  S
S1891      H1894   1.407       .  S
S1892      H1893   1.401       .  S
C1897      C1898   1.409       .  A
C1897      C1902   1.420       .  A
C1898      C1899   1.408       .  A
C1898      H1907   1.084       .  S
C1899      C1900   1.425       .  A
C1899      S1903   1.805       .  S
C1900      C1901   1.413       .  A
C1901      C1902   1.417       .  A
C1901      H1908   1.083       .  S
C1902      S1904   1.799       .  S
S1903      H1906   1.400       .  S
S1904      H1905   1.407       .  S
C1909      C1910   1.407       .  A
C1909      C1914   1.421       .  A
C1910      C1911   1.415   1_455  A
C1910      H1919   1.084       .  S
C1911      C1912   1.423       .  A
C1911      S1915   1.802       .  S
C1912      C1913   1.402       .  A
C1913      C1914   1.404   1_655  A
C1913      H1920   1.082       .  S
C1914      S1916   1.799       .  S
S1915      H1918   1.408       .  S
S1916      H1917   1.405       .  S
C1921      C1922   1.409       .  A
C1921      C1926   1.408       .  A
C1922      C1923   1.409       .  A
C1922      H1931   1.084       .  S
C1923      C1924   1.415       .  A
C1923      S1927   1.801       .  S
C1924      C1925   1.408       .  A
C1925      C1926   1.390       .  A
C1925      H1932   1.084       .  S
C1926      S1928   1.807       .  S
S1927      H1930   1.407       .  S
S1928      H1929   1.406       .  S
C1933      C1934   1.401       .  A
C1933      C1938   1.412       .  A
C1934      C1935   1.393   1_655  A
C1934      H1943   1.085       .  S
C1935      C1936   1.416       .  A
C1935      S1939   1.805       .  S
C1936      C1937   1.406       .  A
C1937      C1938   1.409   1_455  A
C1937      H1944   1.083       .  S
C1938      S1940   1.806       .  S
S1939      H1942   1.406       .  S
S1940      H1941   1.407       .  S
C1945      C1946   1.405       .  A
C1945      C1950   1.408       .  A
C1946      C1947   1.394       .  A
C1946      H1955   1.083       .  S
C1947      C1948   1.406       .  A
C1947      S1951   1.809       .  S
C1948      C1949   1.407       .  A
C1949      C1950   1.403       .  A
C1949      H1956   1.084       .  S
C1950      S1952   1.802       .  S
S1951      H1954   1.407       .  S
S1952      H1953   1.405       .  S
C1957      C1958   1.409       .  A
C1957      C1962   1.416       .  A
C1958      C1959   1.410       .  A
C1958      H1967   1.083       .  S
C1959      C1960   1.414       .  A
C1959      S1963   1.799       .  S
C1960      C1961   1.403       .  A
C1961      C1962   1.399       .  A
C1961      H1968   1.084       .  S
C1962      S1964   1.811       .  S
S1963      H1966   1.404       .  S
S1964      H1965   1.405       .  S
C1969      C1970   1.406       .  A
C1969      C1974   1.421       .  A
C1970      C1971   1.409       .  A
C1970      H1979   1.082       .  S
C1971      C1972   1.422       .  A
C1971      S1975   1.807       .  S
C1972      C1973   1.410       .  A
C1973      C1974   1.410       .  A
C1973      H1980   1.081       .  S
C1974      S1976   1.810       .  S
S1975      H1978   1.406       .  S
S1976      H1977   1.407       .  S
C1981      C1982   1.403       .  A
C1981      C1986   1.416       .  A
C1982      C1983   1.406       .  A
C1982      H1991   1.084       .  S
C1983      C1984   1.421       .  A
C1983      S1987   1.802       .  S
C1984      C1985   1.403       .  A
C1985      C1986   1.396       .  A
C1985      H1992   1.084       .  S
C1986      S1988   1.803       .  S
S1987      H1990   1.407       .  S
S1988      H1989   1.406       .  S
C1993      C1994   1.409       .  A
C1993      C1998   1.419       .  A
C1994      C1995   1.409       .  A
C1994      H2003   1.082       .  S
C1995      C1996   1.416       .  A
C1995      S1999   1.807       .  S
C1996      C1997   1.406       .  A
C1997      C1998   1.401       .  A
C1997      H2004   1.082       .  S
C1998      S2000   1.812       .  S
S1999      H2002   1.407       .  S
S2000      H2001   1.407       .  S
C2005      C2006   1.413       .  A
C2005      C2010   1.415       .  A
C2006      C2007   1.406       .  A
C2006      H2015   1.084       .  S
C2007      C2008   1.414       .  A
C2007      S2011   1.802       .  S
C2008      C2009   1.413       .  A
C2009      C2010   1.418       .  A
C2009      H2016   1.082       .  S
C2010      S2012   1.804       .  S
S2011      H2014   1.406       .  S
S2012      H2013   1.407       .  S
C2017      C2018   1.399       .  A
C2017      C2022   1.412       .  A
C2018      C2019   1.396       .  A
C2018      H2027   1.083       .  S
C2019      C2020   1.419       .  A
C2019      S2023   1.805       .  S
C2020      C2021   1.408       .  A
C2021      C2022   1.408       .  A
C2021      H2028   1.082       .  S
C2022      S2024   1.806       .  S
S2023      H2026   1.408       .  S
S2024      H2025   1.407       .  S
C2029      C2030   1.410       .  A
C2029      C2034   1.417       .  A
C2030      C2031   1.409       .  A
C2030      H2039   1.031       .  S
C2031      C2032   1.415       .  A
C2031      S2035   1.803       .  S
C2032      C2033   1.410       .  A
C2033      C2034   1.408       .  A
C2033      H2040   1.080       .  S
C2034      S2036   1.802       .  S
S2035      H2038   1.408       .  S
S2036      H2037   1.408       .  S
C2041      C2042   1.404       .  A
C2041      C2046   1.413       .  A
C2042      C2043   1.406       .  A
C2042      H2051   1.084       .  S
C2043      C2044   1.416       .  A
C2043      S2047   1.801       .  S
C2044      C2045   1.400       .  A
C2045      C2046   1.400       .  A
C2045      H2052   1.081       .  S
C2046      S2048   1.799       .  S
S2047      H2050   1.405       .  S
S2048      H2049   1.404       .  S
C2053      C2054   1.409       .  A
C2053      C2058   1.421       .  A
C2054      C2055   1.409       .  A
C2054      H2063   1.082       .  S
C2055      C2056   1.414       .  A
C2055      S2059   1.804       .  S
C2056      C2057   1.407       .  A
C2057      C2058   1.409       .  A
C2057      H2064   1.084       .  S
C2058      S2060   1.802       .  S
S2059      H2062   1.407       .  S
S2060      H2061   1.408       .  S
C2065      C2066   1.401       .  A
C2065      C2070   1.410       .  A
C2066      C2067   1.398       .  A
C2066      H2075   1.083       .  S
C2067      C2068   1.419       .  A
C2067      S2071   1.813       .  S
C2068      C2069   1.409       .  A
C2069      C2070   1.408       .  A
C2069      H2076   1.083       .  S
C2070      S2072   1.805       .  S
S2071      H2074   1.407       .  S
S2072      H2073   1.407       .  S
C2077      C2078   1.394       .  A
C2077      C2082   1.416       .  A
C2078      C2079   1.393       .  A
C2078      H2087   1.085       .  S
C2079      C2080   1.429       .  A
C2079      S2083   1.809       .  S
C2080      C2081   1.406       .  A
C2081      C2082   1.409       .  A
C2081      H2088   1.082       .  S
C2082      S2084   1.803       .  S
S2083      H2086   1.403       .  S
S2084      H2085   1.403       .  S
C2089      C2090   1.395       .  A
C2089      C2094   1.411       .  A
C2090      C2091   1.394       .  A
C2090      H2099   1.083       .  S
C2091      C2092   1.419       .  A
C2091      S2095   1.806       .  S
C2092      C2093   1.404       .  A
C2093      C2094   1.405       .  A
C2093      H2100   1.083       .  S
C2094      S2096   1.806       .  S
S2095      H2098   1.408       .  S
S2096      H2097   1.407       .  S
C2101      C2102   1.403       .  A
C2101      C2106   1.421       .  A
C2102      C2103   1.413   1_565  A
C2102      H2111   1.082       .  S
C2103      C2104   1.430       .  A
C2103      S2107   1.811       .  S
C2104      C2105   1.404       .  A
C2105      C2106   1.404   1_545  A
C2105      H2112   1.084       .  S
C2106      S2108   1.804       .  S
S2107      H2110   1.407       .  S
S2108      H2109   1.408       .  S
C2113      C2114   1.406       .  A
C2113      C2118   1.415       .  A
C2114      C2115   1.407       .  A
C2114      H2123   1.083       .  S
C2115      C2116   1.416       .  A
C2115      S2119   1.809       .  S
C2116      C2117   1.406       .  A
C2117      C2118   1.403       .  A
C2117      H2124   1.084       .  S
C2118      S2120   1.802       .  S
S2119      H2122   1.407       .  S
S2120      H2121   1.402       .  S
C2125      C2126   1.399       .  A
C2125      C2130   1.423       .  A
C2126      C2127   1.410       .  A
C2126      H2135   1.084       .  S
C2127      C2128   1.430       .  A
C2127      S2131   1.804       .  S
C2128      C2129   1.401       .  A
C2129      C2130   1.413       .  A
C2129      H2136   1.082       .  S
C2130      S2132   1.808       .  S
S2131      H2134   1.407       .  S
S2132      H2133   1.406       .  S
C2137      C2138   1.404       .  A
C2137      C2142   1.410       .  A
C2138      C2139   1.399   1_565  A
C2138      H2147   1.084       .  S
C2139      C2140   1.412       .  A
C2139      S2143   1.800       .  S
C2140      C2141   1.403       .  A
C2141      C2142   1.394   1_545  A
C2141      H2148   1.084       .  S
C2142      S2144   1.795       .  S
S2143      H2146   1.406       .  S
S2144      H2145   1.404       .  S
C2149      C2150   1.405       .  A
C2149      C2154   1.414       .  A
C2150      C2151   1.409       .  A
C2150      H2159   1.084       .  S
C2151      C2152   1.419       .  A
C2151      S2155   1.798       .  S
C2152      C2153   1.402       .  A
C2153      C2154   1.400       .  A
C2153      H2160   1.083       .  S
C2154      S2156   1.804       .  S
S2155      H2158   1.406       .  S
S2156      H2157   1.407       .  S
C2161      C2162   1.409       .  A
C2161      C2166   1.427       .  A
C2162      C2163   1.411       .  A
C2162      H2171   1.082       .  S
C2163      C2164   1.415       .  A
C2163      S2167   1.802       .  S
C2164      C2165   1.390       .  A
C2165      C2166   1.397       .  A
C2165      H2172   1.084       .  S
C2166      S2168   1.797       .  S
S2167      H2170   1.407       .  S
S2168      H2169   1.408       .  S
C2173      C2174   1.405       .  A
C2173      C2178   1.418       .  A
C2174      C2175   1.391       .  A
C2174      H2183   1.084       .  S
C2175      C2176   1.410       .  A
C2175      S2179   1.803       .  S
C2176      C2177   1.402       .  A
C2177      C2178   1.400       .  A
C2177      H2184   1.083       .  S
C2178      S2180   1.808       .  S
S2179      H2182   1.408       .  S
S2180      H2181   1.407       .  S
C2185      C2186   1.407       .  A
C2185      C2190   1.408       .  A
C2186      C2187   1.388       .  A
C2186      H2195   1.083       .  S
C2187      C2188   1.408       .  A
C2187      S2191   1.813       .  S
C2188      C2189   1.406       .  A
C2189      C2190   1.404       .  A
C2189      H2196   1.084       .  S
C2190      S2192   1.799       .  S
S2191      H2194   1.407       .  S
S2192      H2193   1.407       .  S
C2197      C2198   1.394       .  A
C2197      C2202   1.426       .  A
C2198      C2199   1.390       .  A
C2198      H2207   1.084       .  S
C2199      C2200   1.420       .  A
C2199      S2203   1.799       .  S
C2200      C2201   1.396       .  A
C2201      C2202   1.383       .  A
C2201      H2208   1.081       .  S
C2202      S2204   1.819       .  S
S2203      H2206   1.408       .  S
S2204      H2205   1.407       .  S
C2209      C2210   1.410       .  A
C2209      C2214   1.421       .  A
C2210      C2211   1.408       .  A
C2210      H2219   1.083       .  S
C2211      C2212   1.421       .  A
C2211      S2215   1.802       .  S
C2212      C2213   1.414       .  A
C2213      C2214   1.419       .  A
C2213      H2220   1.082       .  S
C2214      S2216   1.808       .  S
S2215      H2218   1.403       .  S
S2216      H2217   1.407       .  S
C2221      C2222   1.402       .  A
C2221      C2226   1.413       .  A
C2222      C2223   1.387       .  A
C2222      H2231   1.082       .  S
C2223      C2224   1.413       .  A
C2223      S2227   1.810       .  S
C2224      C2225   1.404       .  A
C2225      C2226   1.399       .  A
C2225      H2232   1.083       .  S
C2226      S2228   1.809       .  S
S2227      H2230   1.406       .  S
S2228      H2229   1.406       .  S
C2233      C2234   1.410       .  A
C2233      C2238   1.410       .  A
C2234      C2235   1.401       .  A
C2234      H2243   1.084       .  S
C2235      C2236   1.412       .  A
C2235      S2239   1.801       .  S
C2236      C2237   1.406       .  A
C2237      C2238   1.403       .  A
C2237      H2244   1.084       .  S
C2238      S2240   1.805       .  S
S2239      H2242   1.407       .  S
S2240      H2241   1.407       .  S
C2245      C2246   1.408       .  A
C2245      C2250   1.417       .  A
C2246      C2247   1.393       .  A
C2246      H2255   1.084       .  S
C2247      C2248   1.405       .  A
C2247      S2251   1.795       .  S
C2248      C2249   1.406       .  A
C2249      C2250   1.406       .  A
C2249      H2256   1.084       .  S
C2250      S2252   1.803       .  S
S2251      H2254   1.404       .  S
S2252      H2253   1.408       .  S
C2257      C2258   1.407       .  A
C2257      C2262   1.422       .  A
C2258      C2259   1.409       .  A
C2258      H2267   1.084       .  S
C2259      C2260   1.419       .  A
C2259      S2263   1.803       .  S
C2260      C2261   1.405       .  A
C2261      C2262   1.417       .  A
C2261      H2268   1.083       .  S
C2262      S2264   1.806       .  S
S2263      H2266   1.404       .  S
S2264      H2265   1.406       .  S
C2269      C2270   1.398       .  A
C2269      C2274   1.409       .  A
C2270      C2271   1.404       .  A
C2270      H2279   1.083       .  S
C2271      C2272   1.418       .  A
C2271      S2275   1.806       .  S
C2272      C2273   1.401       .  A
C2273      C2274   1.397       .  A
C2273      H2280   1.083       .  S
C2274      S2276   1.800       .  S
S2275      H2278   1.407       .  S
S2276      H2277   1.407       .  S
C2281      C2282   1.413       .  A
C2281      C2286   1.408       .  A
C2282      C2283   1.418       .  A
C2282      H2291   1.083       .  S
C2283      C2284   1.415       .  A
C2283      S2287   1.804       .  S
C2284      C2285   1.416       .  A
C2285      C2286   1.406       .  A
C2285      H2292   1.082       .  S
C2286      S2288   1.806       .  S
S2287      H2290   1.407       .  S
S2288      H2289   1.406       .  S
C2293      C2294   1.400       .  A
C2293      C2298   1.420       .  A
C2294      C2295   1.418       .  A
C2294      H2303   1.083       .  S
C2295      C2296   1.423       .  A
C2295      S2299   1.792       .  S
C2296      C2297   1.408       .  A
C2297      C2298   1.415       .  A
C2297      H2304   1.083       .  S
C2298      S2300   1.810       .  S
S2299      H2302   1.407       .  S
S2300      H2301   1.406       .  S
C2305      C2306   1.407       .  A
C2305      C2310   1.418       .  A
C2306      C2307   1.413       .  A
C2306      H2315   1.084       .  S
C2307      C2308   1.417       .  A
C2307      S2311   1.803       .  S
C2308      C2309   1.400       .  A
C2309      C2310   1.403       .  A
C2309      H2316   1.082       .  S
C2310      S2312   1.811       .  S
S2311      H2314   1.406       .  S
S2312      H2313   1.406       .  S
C2317      C2318   1.408       .  A
C2317      C2322   1.409       .  A
C2318      C2319   1.404   1_565  A
C2318      H2327   1.082       .  S
C2319      C2320   1.415       .  A
C2319      S2323   1.808       .  S
C2320      C2321   1.409       .  A
C2321      C2322   1.397   1_545  A
C2321      H2328   1.084       .  S
C2322      S2324   1.803       .  S
S2323      H2326   1.407   1_545  S
S2324      H2325   1.408       .  S
C2329      C2330   1.401       .  A
C2329      C2334   1.405       .  A
C2330      C2331   1.402   1_565  A
C2330      H2339   1.080       .  S
C2331      C2332   1.417       .  A
C2331      S2335   1.810       .  S
C2332      C2333   1.413       .  A
C2333      C2334   1.402   1_545  A
C2333      H2340   1.083       .  S
C2334      S2336   1.803       .  S
S2335      H2338   1.406   1_545  S
S2336      H2337   1.405       .  S
C2341      C2342   1.411       .  A
C2341      C2346   1.425       .  A
C2342      C2343   1.414   1_655  A
C2342      H2351   1.084       .  S
C2343      C2344   1.423       .  A
C2343      S2347   1.799       .  S
C2344      C2345   1.410       .  A
C2345      C2346   1.414   1_455  A
C2345      H2352   1.082       .  S
C2346      S2348   1.810       .  S
S2347      H2350   1.408       .  S
S2348      H2349   1.407       .  S
C2353      C2354   1.401       .  A
C2353      C2358   1.414       .  A
C2354      C2355   1.397       .  A
C2354      H2363   1.085       .  S
C2355      C2356   1.415       .  A
C2355      S2359   1.806       .  S
C2356      C2357   1.408       .  A
C2357      C2358   1.415       .  A
C2357      H2364   1.083       .  S
C2358      S2360   1.802       .  S
S2359      H2362   1.402       .  S
S2360      H2361   1.406       .  S
C2365      C2366   1.404       .  A
C2365      C2370   1.407       .  A
C2366      C2367   1.401   1_455  A
C2366      H2375   1.084       .  S
C2367      C2368   1.416       .  A
C2367      S2371   1.799       .  S
C2368      C2369   1.412       .  A
C2369      C2370   1.398   1_655  A
C2369      H2376   1.084       .  S
C2370      S2372   1.806       .  S
S2371      H2374   1.406       .  S
S2372      H2373   1.407       .  S
C2377      C2378   1.411       .  A
C2377      C2382   1.414       .  A
C2378      C2379   1.406       .  A
C2378      H2387   1.082       .  S
C2379      C2380   1.408       .  A
C2379      S2383   1.795       .  S
C2380      C2381   1.405       .  A
C2381      C2382   1.394       .  A
C2381      H2388   1.084       .  S
C2382      S2384   1.804       .  S
S2383      H2386   1.405       .  S
S2384      H2385   1.403       .  S
C2389      C2390   1.402       .  A
C2389      C2394   1.415       .  A
C2390      C2391   1.396       .  A
C2390      H2399   1.084       .  S
C2391      C2392   1.417       .  A
C2391      S2395   1.805       .  S
C2392      C2393   1.407       .  A
C2393      C2394   1.411       .  A
C2393      H2400   1.084       .  S
C2394      S2396   1.794       .  S
S2395      H2398   1.408       .  S
S2396      H2397   1.405       .  S
C2401      C2402   1.410       .  A
C2401      C2406   1.417       .  A
C2402      C2403   1.401       .  A
C2402      H2411   1.083       .  S
C2403      C2404   1.413       .  A
C2403      S2407   1.802       .  S
C2404      C2405   1.409       .  A
C2405      C2406   1.406       .  A
C2405      H2412   1.083       .  S
C2406      S2408   1.809       .  S
S2407      H2410   1.407       .  S
S2408      H2409   1.407       .  S
C2413      C2414   1.400       .  A
C2413      C2418   1.422       .  A
C2414      C2415   1.395       .  A
C2414      H2423   1.084       .  S
C2415      C2416   1.413       .  A
C2415      S2419   1.795       .  S
C2416      C2417   1.397       .  A
C2417      C2418   1.387       .  A
C2417      H2424   1.082       .  S
C2418      S2420   1.817       .  S
S2419      H2422   1.406       .  S
S2420      H2421   1.406       .  S
C2425      C2426   1.412       .  A
C2425      C2430   1.416       .  A
C2426      C2427   1.406       .  A
C2426      H2435   1.083       .  S
C2427      C2428   1.411       .  A
C2427      S2431   1.804       .  S
C2428      C2429   1.403       .  A
C2429      C2430   1.406       .  A
C2429      H2436   1.083       .  S
C2430      S2432   1.808       .  S
S2431      H2434   1.404       .  S
S2432      H2433   1.407       .  S
C2437      C2438   1.404       .  A
C2437      C2442   1.416       .  A
C2438      C2439   1.405       .  A
C2438      H2447   1.082       .  S
C2439      C2440   1.414       .  A
C2439      S2443   1.801       .  S
C2440      C2441   1.398       .  A
C2441      C2442   1.397       .  A
C2441      H2448   1.085       .  S
C2442      S2444   1.801       .  S
S2443      H2446   1.405       .  S
S2444      H2445   1.405       .  S
C2449      C2450   1.395       .  A
C2449      C2454   1.412       .  A
C2450      C2451   1.393       .  A
C2450      H2459   1.083       .  S
C2451      C2452   1.421       .  A
C2451      S2455   1.812       .  S
C2452      C2453   1.395       .  A
C2453      C2454   1.393       .  A
C2453      H2460   1.084       .  S
C2454      S2456   1.795       .  S
S2455      H2458   1.402       .  S
S2456      H2457   1.405       .  S
C2461      C2462   1.398       .  A
C2461      C2466   1.419       .  A
C2462      C2463   1.394       .  A
C2462      H2471   1.085       .  S
C2463      C2464   1.421       .  A
C2463      S2467   1.801       .  S
C2464      C2465   1.403       .  A
C2465      C2466   1.410       .  A
C2465      H2472   1.083       .  S
C2466      S2468   1.804       .  S
S2467      H2470   1.406       .  S
S2468      H2469   1.408       .  S
C2473      C2474   1.398       .  A
C2473      C2478   1.402       .  A
C2474      C2475   1.390       .  A
C2474      H2483   1.084       .  S
C2475      C2476   1.403       .  A
C2475      S2479   1.800       .  S
C2476      C2477   1.399       .  A
C2477      C2478   1.387       .  A
C2477      H2484   1.085       .  S
C2478      S2480   1.804       .  S
S2479      H2482   1.407       .  S
S2480      H2481   1.405       .  S
C2485      C2486   1.402       .  A
C2485      C2490   1.416       .  A
C2486      C2487   1.400       .  A
C2486      H2495   1.085       .  S
C2487      C2488   1.420       .  A
C2487      S2491   1.804       .  S
C2488      C2489   1.411       .  A
C2489      C2490   1.413       .  A
C2489      H2496   1.083       .  S
C2490      S2492   1.805       .  S
S2491      H2494   1.406       .  S
S2492      H2493   1.403       .  S
C2497      C2498   1.403       .  A
C2497      C2502   1.424       .  A
C2498      C2499   1.409       .  A
C2498      H2507   1.083       .  S
C2499      C2500   1.419       .  A
C2499      S2503   1.804       .  S
C2500      C2501   1.399       .  A
C2501      C2502   1.399       .  A
C2501      H2508   1.082       .  S
C2502      S2504   1.813       .  S
S2503      H2506   1.407       .  S
S2504      H2505   1.407       .  S
C2509      C2510   1.404       .  A
C2509      C2514   1.421       .  A
C2510      C2511   1.402       .  A
C2510      H2519   1.082       .  S
C2511      C2512   1.413       .  A
C2511      S2515   1.808       .  S
C2512      C2513   1.403       .  A
C2513      C2514   1.409       .  A
C2513      H2520   1.082       .  S
C2514      S2516   1.800       .  S
S2515      H2518   1.407       .  S
S2516      H2517   1.406       .  S
C2521      C2522   1.406       .  A
C2521      C2526   1.409       .  A
C2522      C2523   1.400       .  A
C2522      H2531   1.082       .  S
C2523      C2524   1.421       .  A
C2523      S2527   1.811       .  S
C2524      C2525   1.412       .  A
C2525      C2526   1.407       .  A
C2525      H2532   1.076       .  S
C2526      S2528   1.801       .  S
S2527      H2530   1.407       .  S
S2528      H2529   1.407       .  S
C2533      C2534   1.407       .  A
C2533      C2538   1.423       .  A
C2534      C2535   1.403       .  A
C2534      H2543   1.081       .  S
C2535      C2536   1.411       .  A
C2535      S2539   1.807       .  S
C2536      C2537   1.406       .  A
C2537      C2538   1.408       .  A
C2537      H2544   1.082       .  S
C2538      S2540   1.811       .  S
S2539      H2542   1.406       .  S
S2540      H2541   1.407       .  S
C2545      C2546   1.402       .  A
C2545      C2550   1.408       .  A
C2546      C2547   1.397       .  A
C2546      H2555   1.082       .  S
C2547      C2548   1.406       .  A
C2547      S2551   1.799       .  S
C2548      C2549   1.402       .  A
C2549      C2550   1.393       .  A
C2549      H2556   1.083       .  S
C2550      S2552   1.804       .  S
S2551      H2554   1.406       .  S
S2552      H2553   1.406       .  S
C2557      C2558   1.402       .  A
C2557      C2562   1.428       .  A
C2558      C2559   1.401   1_556  A
C2558      H2567   1.082       .  S
C2559      C2560   1.414       .  A
C2559      S2563   1.800       .  S
C2560      C2561   1.403       .  A
C2561      C2562   1.416   1_554  A
C2561      H2568   1.082       .  S
C2562      S2564   1.808       .  S
S2563      H2566   1.406   1_554  S
S2564      H2565   1.407       .  S
C2569      C2570   1.404       .  A
C2569      C2574   1.421       .  A
C2570      C2571   1.410   1_556  A
C2570      H2579   1.084       .  S
C2571      C2572   1.422       .  A
C2571      S2575   1.797       .  S
C2572      C2573   1.408       .  A
C2573      C2574   1.414   1_554  A
C2573      H2580   1.084       .  S
C2574      S2576   1.804       .  S
S2575      H2578   1.407       .  S
S2576      H2577   1.402       .  S
C2581      C2582   1.408       .  A
C2581      C2586   1.423       .  A
C2582      C2583   1.414       .  A
C2582      H2591   1.084       .  S
C2583      C2584   1.423       .  A
C2583      S2587   1.802       .  S
C2584      C2585   1.407       .  A
C2585      C2586   1.410       .  A
C2585      H2592   1.083       .  S
C2586      S2588   1.802       .  S
S2587      H2590   1.403       .  S
S2588      H2589   1.407       .  S
C2593      C2594   1.407       .  A
C2593      C2598   1.418       .  A
C2594      C2595   1.408       .  A
C2594      H2603   1.079       .  S
C2595      C2596   1.408       .  A
C2595      S2599   1.805       .  S
C2596      C2597   1.401       .  A
C2597      C2598   1.398       .  A
C2597      H2604   1.085       .  S
C2598      S2600   1.804       .  S
S2599      H2602   1.407       .  S
S2600      H2601   1.401       .  S
C2605      C2606   1.400       .  A
C2605      C2610   1.417       .  A
C2606      C2607   1.396       .  A
C2606      H2615   1.078       .  S
C2607      C2608   1.414       .  A
C2607      S2611   1.811       .  S
C2608      C2609   1.410       .  A
C2609      C2610   1.416       .  A
C2609      H2616   1.083       .  S
C2610      S2612   1.804       .  S
S2611      H2614   1.404       .  S
S2612      H2613   1.406       .  S
C2617      C2618   1.409       .  A
C2617      C2622   1.416       .  A
C2618      C2619   1.398       .  A
C2618      H2627   1.082       .  S
C2619      C2620   1.405       .  A
C2619      S2623   1.798       .  S
C2620      C2621   1.407       .  A
C2621      C2622   1.410       .  A
C2621      H2628   1.084       .  S
C2622      S2624   1.800       .  S
S2623      H2626   1.407       .  S
S2624      H2625   1.407       .  S
C2629      C2630   1.409       .  A
C2629      C2634   1.414       .  A
C2630      C2631   1.414       .  A
C2630      H2639   1.082       .  S
C2631      C2632   1.417       .  A
C2631      S2635   1.807       .  S
C2632      C2633   1.414       .  A
C2633      C2634   1.414       .  A
C2633      H2640   1.083       .  S
C2634      S2636   1.803       .  S
S2635      H2638   1.407       .  S
S2636      H2637   1.407       .  S
C2641      C2642   1.396       .  A
C2641      C2646   1.412       .  A
C2642      C2643   1.395       .  A
C2642      H2651   1.084       .  S
C2643      C2644   1.419       .  A
C2643      S2647   1.809       .  S
C2644      C2645   1.398       .  A
C2645      C2646   1.401       .  A
C2645      H2652   1.083       .  S
C2646      S2648   1.793       .  S
S2647      H2650   1.407       .  S
S2648      H2649   1.407       .  S
C2653      C2654   1.402       .  A
C2653      C2658   1.412       .  A
C2654      C2655   1.390       .  A
C2654      H2663   1.083       .  S
C2655      C2656   1.407       .  A
C2655      S2659   1.810       .  S
C2656      C2657   1.394       .  A
C2657      C2658   1.393       .  A
C2657      H2664   1.085       .  S
C2658      S2660   1.790       .  S
S2659      H2662   1.407       .  S
S2660      H2661   1.406       .  S
C2665      C2666   1.403       .  A
C2665      C2670   1.418       .  A
C2666      C2667   1.388       .  A
C2666      H2675   1.083       .  S
C2667      C2668   1.415       .  A
C2667      S2671   1.804       .  S
C2668      C2669   1.404       .  A
C2669      C2670   1.398       .  A
C2669      H2676   1.082       .  S
C2670      S2672   1.810       .  S
S2671      H2674   1.408       .  S
S2672      H2673   1.406       .  S
C2677      C2678   1.404       .  A
C2677      C2682   1.428       .  A
C2678      C2679   1.406       .  A
C2678      H2687   1.083       .  S
C2679      C2680   1.419       .  A
C2679      S2683   1.809       .  S
C2680      C2681   1.407       .  A
C2681      C2682   1.415       .  A
C2681      H2688   1.083       .  S
C2682      S2684   1.801       .  S
S2683      H2686   1.407       .  S
S2684      H2685   1.407       .  S
C2689      C2690   1.397       .  A
C2689      C2694   1.414       .  A
C2690      C2691   1.396       .  A
C2690      H2699   1.082       .  S
C2691      C2692   1.421       .  A
C2691      S2695   1.810       .  S
C2692      C2693   1.407       .  A
C2693      C2694   1.404       .  A
C2693      H2700   1.084       .  S
C2694      S2696   1.802       .  S
S2695      H2698   1.407       .  S
S2696      H2697   1.403       .  S
C2701      C2702   1.407       .  A
C2701      C2706   1.409       .  A
C2702      C2703   1.396       .  A
C2702      H2711   1.082       .  S
C2703      C2704   1.416       .  A
C2703      S2707   1.812       .  S
C2704      C2705   1.409       .  A
C2705      C2706   1.405       .  A
C2705      H2712   1.079       .  S
C2706      S2708   1.803       .  S
S2707      H2710   1.406       .  S
S2708      H2709   1.406       .  S
C2713      C2714   1.408       .  A
C2713      C2718   1.413       .  A
C2714      C2715   1.396       .  A
C2714      H2723   1.084       .  S
C2715      C2716   1.413       .  A
C2715      S2719   1.801       .  S
C2716      C2717   1.415       .  A
C2717      C2718   1.421       .  A
C2717      H2724   1.083       .  S
C2718      S2720   1.803       .  S
S2719      H2722   1.398       .  S
S2720      H2721   1.407       .  S
C2725      C2726   1.404       .  A
C2725      C2730   1.417       .  A
C2726      C2727   1.407       .  A
C2726      H2735   1.082       .  S
C2727      C2728   1.415       .  A
C2727      S2731   1.802       .  S
C2728      C2729   1.392       .  A
C2729      C2730   1.390       .  A
C2729      H2736   1.084       .  S
C2730      S2732   1.801       .  S
S2731      H2734   1.405       .  S
S2732      H2733   1.407       .  S
C2737      C2738   1.398       .  A
C2737      C2742   1.410       .  A
C2738      C2739   1.394       .  A
C2738      H2747   1.084       .  S
C2739      C2740   1.414       .  A
C2739      S2743   1.799       .  S
C2740      C2741   1.398       .  A
C2741      C2742   1.383       .  A
C2741      H2748   1.085       .  S
C2742      S2744   1.807       .  S
S2743      H2746   1.407       .  S
S2744      H2745   1.400       .  S
C2749      C2750   1.410       .  A
C2749      C2754   1.423       .  A
C2750      C2751   1.414   1_556  A
C2750      H2759   1.082       .  S
C2751      C2752   1.422       .  A
C2751      S2755   1.809       .  S
C2752      C2753   1.408       .  A
C2753      C2754   1.417   1_554  A
C2753      H2760   1.082       .  S
C2754      S2756   1.807       .  S
S2755      H2758   1.407       .  S
S2756      H2757   1.407       .  S
C2761      C2762   1.403       .  A
C2761      C2766   1.412       .  A
C2762      C2763   1.400   1_556  A
C2762      H2771   1.083       .  S
C2763      C2764   1.414       .  A
C2763      S2767   1.809       .  S
C2764      C2765   1.402       .  A
C2765      C2766   1.402   1_554  A
C2765      H2772   1.081       .  S
C2766      S2768   1.808       .  S
S2767      H2770   1.407       .  S
S2768      H2769   1.406       .  S
C2773      C2774   1.401       .  A
C2773      C2778   1.416       .  A
C2774      C2775   1.411   1_655  A
C2774      H2783   1.083       .  S
C2775      C2776   1.425       .  A
C2775      S2779   1.811       .  S
C2776      C2777   1.406       .  A
C2777      C2778   1.409   1_455  A
C2777      H2784   1.084       .  S
C2778      S2780   1.801       .  S
S2779      H2782   1.407       .  S
S2780      H2781   1.405       .  S
C2785      C2786   1.400       .  A
C2785      C2790   1.424       .  A
C2786      C2787   1.402       .  A
C2786      H2795   1.084       .  S
C2787      C2788   1.424       .  A
C2787      S2791   1.804       .  S
C2788      C2789   1.406       .  A
C2789      C2790   1.415       .  A
C2789      H2796   1.083       .  S
C2790      S2792   1.801       .  S
S2791      H2794   1.402       .  S
S2792      H2793   1.407       .  S
C2797      C2798   1.405       .  A
C2797      C2802   1.416       .  A
C2798      C2799   1.396   1_655  A
C2798      H2807   1.084       .  S
C2799      C2800   1.415       .  A
C2799      S2803   1.798       .  S
C2800      C2801   1.407       .  A
C2801      C2802   1.405   1_455  A
C2801      H2808   1.084       .  S
C2802      S2804   1.802       .  S
S2803      H2806   1.402       .  S
S2804      H2805   1.407       .  S
C2809      C2810   1.405       .  A
C2809      C2814   1.416       .  A
C2810      C2811   1.404       .  A
C2810      H2819   1.084       .  S
C2811      C2812   1.417       .  A
C2811      S2815   1.800       .  S
C2812      C2813   1.405       .  A
C2813      C2814   1.393       .  A
C2813      H2820   1.082       .  S
C2814      S2816   1.812       .  S
S2815      H2818   1.408       .  S
S2816      H2817   1.406       .  S
C2821      C2822   1.404       .  A
C2821      C2826   1.405       .  A
C2822      C2823   1.391       .  A
C2822      H2831   1.085       .  S
C2823      C2824   1.406       .  A
C2823      S2827   1.803       .  S
C2824      C2825   1.407       .  A
C2825      C2826   1.396       .  A
C2825      H2832   1.083       .  S
C2826      S2828   1.803       .  S
S2827      H2830   1.407       .  S
S2828      H2829   1.404       .  S
C2833      C2834   1.400       .  A
C2833      C2838   1.422       .  A
C2834      C2835   1.400       .  A
C2834      H2843   1.083       .  S
C2835      C2836   1.419       .  A
C2835      S2839   1.808       .  S
C2836      C2837   1.407       .  A
C2837      C2838   1.419       .  A
C2837      H2844   1.082       .  S
C2838      S2840   1.805       .  S
S2839      H2842   1.406       .  S
S2840      H2841   1.407       .  S
C2845      C2846   1.401       .  A
C2845      C2850   1.410       .  A
C2846      C2847   1.394       .  A
C2846      H2855   1.082       .  S
C2847      C2848   1.412       .  A
C2847      S2851   1.805       .  S
C2848      C2849   1.404       .  A
C2849      C2850   1.396       .  A
C2849      H2856   1.084       .  S
C2850      S2852   1.803       .  S
S2851      H2854   1.407       .  S
S2852      H2853   1.408       .  S
C2857      C2858   1.407       .  A
C2857      C2862   1.421       .  A
C2858      C2859   1.400       .  A
C2858      H2867   1.083       .  S
C2859      C2860   1.421       .  A
C2859      S2863   1.805       .  S
C2860      C2861   1.402       .  A
C2861      C2862   1.404       .  A
C2861      H2868   1.082       .  S
C2862      S2864   1.810       .  S
S2863      H2866   1.407       .  S
S2864      H2865   1.406       .  S
C2869      C2870   1.407       .  A
C2869      C2874   1.404       .  A
C2870      C2871   1.400       .  A
C2870      H2879   1.084       .  S
C2871      C2872   1.411       .  A
C2871      S2875   1.793       .  S
C2872      C2873   1.415       .  A
C2873      C2874   1.393       .  A
C2873      H2880   1.084       .  S
C2874      S2876   1.799       .  S
S2875      H2878   1.403       .  S
S2876      H2877   1.407       .  S
C2881      C2882   1.404       .  A
C2881      C2886   1.424       .  A
C2882      C2883   1.405       .  A
C2882      H2891   1.083       .  S
C2883      C2884   1.417       .  A
C2883      S2887   1.804       .  S
C2884      C2885   1.402       .  A
C2885      C2886   1.411       .  A
C2885      H2892   1.083       .  S
C2886      S2888   1.810       .  S
S2887      H2890   1.407       .  S
S2888      H2889   1.406       .  S
C2893      C2894   1.404       .  A
C2893      C2898   1.427       .  A
C2894      C2895   1.398       .  A
C2894      H2903   1.082       .  S
C2895      C2896   1.423       .  A
C2895      S2899   1.809       .  S
C2896      C2897   1.393       .  A
C2897      C2898   1.406       .  A
C2897      H2904   1.083       .  S
C2898      S2900   1.805       .  S
S2899      H2902   1.405       .  S
S2900      H2901   1.407       .  S
C2905      C2906   1.404       .  A
C2905      C2910   1.414       .  A
C2906      C2907   1.408       .  A
C2906      H2915   1.082       .  S
C2907      C2908   1.417       .  A
C2907      S2911   1.809       .  S
C2908      C2909   1.408       .  A
C2909      C2910   1.406       .  A
C2909      H2916   1.084       .  S
C2910      S2912   1.804       .  S
S2911      H2914   1.407       .  S
S2912      H2913   1.403       .  S
C2917      C2918   1.410       .  A
C2917      C2922   1.405       .  A
C2918      C2919   1.396       .  A
C2918      H2927   1.084       .  S
C2919      C2920   1.403       .  A
C2919      S2923   1.800       .  S
C2920      C2921   1.408       .  A
C2921      C2922   1.393       .  A
C2921      H2928   1.085       .  S
C2922      S2924   1.800       .  S
S2923      H2926   1.406       .  S
S2924      H2925   1.406       .  S
C2929      C2930   1.403       .  A
C2929      C2934   1.412       .  A
C2930      C2931   1.413       .  A
C2930      H2939   1.083       .  S
C2931      C2932   1.422       .  A
C2931      S2935   1.807       .  S
C2932      C2933   1.409       .  A
C2933      C2934   1.404       .  A
C2933      H2940   1.084       .  S
C2934      S2936   1.804       .  S
S2935      H2938   1.407       .  S
S2936      H2937   1.406       .  S
C2941      C2942   1.405       .  A
C2941      C2946   1.426       .  A
C2942      C2943   1.408       .  A
C2942      H2951   1.082       .  S
C2943      C2944   1.423       .  A
C2943      S2947   1.812       .  S
C2944      C2945   1.398       .  A
C2945      C2946   1.407       .  A
C2945      H2952   1.082       .  S
C2946      S2948   1.797       .  S
S2947      H2950   1.406       .  S
S2948      H2949   1.407       .  S
C2953      C2954   1.410       .  A
C2953      C2958   1.419       .  A
C2954      C2955   1.407       .  A
C2954      H2963   1.083       .  S
C2955      C2956   1.417       .  A
C2955      S2959   1.800       .  S
C2956      C2957   1.406       .  A
C2957      C2958   1.401       .  A
C2957      H2964   1.080       .  S
C2958      S2960   1.812       .  S
S2959      H2962   1.408       .  S
S2960      H2961   1.407       .  S
C2965      C2966   1.405       .  A
C2965      C2970   1.424       .  A
C2966      C2967   1.413       .  A
C2966      H2975   1.082       .  S
C2967      C2968   1.424       .  A
C2967      S2971   1.806       .  S
C2968      C2969   1.404       .  A
C2969      C2970   1.398       .  A
C2969      H2976   1.084       .  S
C2970      S2972   1.806       .  S
S2971      H2974   1.407       .  S
S2972      H2973   1.402       .  S
C2977      C2978   1.403       .  A
C2977      C2982   1.412       .  A
C2978      C2979   1.385       .  A
C2978      H2987   1.085       .  S
C2979      C2980   1.415       .  A
C2979      S2983   1.805       .  S
C2980      C2981   1.412       .  A
C2981      C2982   1.415       .  A
C2981      H2988   1.082       .  S
C2982      S2984   1.804       .  S
S2983      H2986   1.405       .  S
S2984      H2985   1.407       .  S
C2989      C2990   1.406       .  A
C2989      C2994   1.413       .  A
C2990      C2991   1.419       .  A
C2990      H2999   1.082       .  S
C2991      C2992   1.425       .  A
C2991      S2995   1.807       .  S
C2992      C2993   1.410       .  A
C2993      C2994   1.409       .  A
C2993      H3000   1.082       .  S
C2994      S2996   1.806       .  S
S2995      H2998   1.407       .  S
S2996      H2997   1.407       .  S
C3001      C3002   1.398       .  A
C3001      C3006   1.411       .  A
C3002      C3003   1.395       .  A
C3002      H3011   1.083       .  S
C3003      C3004   1.414       .  A
C3003      S3007   1.810       .  S
C3004      C3005   1.405       .  A
C3005      C3006   1.408       .  A
C3005      H3012   1.082       .  S
C3006      S3008   1.806       .  S
S3007      H3010   1.407       .  S
S3008      H3009   1.407       .  S
C3013      C3014   1.416       .  A
C3013      C3018   1.424       .  A
C3014      C3015   1.414   1_556  A
C3014      H3023   1.082       .  S
C3015      C3016   1.411       .  A
C3015      S3019   1.802       .  S
C3016      C3017   1.398       .  A
C3017      C3018   1.397   1_554  A
C3017      H3024   1.081       .  S
C3018      S3020   1.814       .  S
S3019      H3022   1.405       .  S
S3020      H3021   1.406   1_556  S
C3025      C3026   1.395       .  A
C3025      C3030   1.419       .  A
C3026      C3027   1.398   1_545  A
C3026      H3035   1.083       .  S
C3027      C3028   1.431       .  A
C3027      S3031   1.814       .  S
C3028      C3029   1.400       .  A
C3029      C3030   1.394   1_565  A
C3029      H3036   1.084       .  S
C3030      S3032   1.802       .  S
S3031      H3034   1.407   1_565  S
S3032      H3033   1.404       .  S
C3037      C3038   1.404       .  A
C3037      C3042   1.418       .  A
C3038      C3039   1.408   1_545  A
C3038      H3047   1.082       .  S
C3039      C3040   1.418       .  A
C3039      S3043   1.797       .  S
C3040      C3041   1.408       .  A
C3041      C3042   1.408   1_565  A
C3041      H3048   1.084       .  S
C3042      S3044   1.801       .  S
S3043      H3046   1.406       .  S
S3044      H3045   1.407       .  S
C3049      C3050   1.408       .  A
C3049      C3054   1.418       .  A
C3050      C3051   1.413       .  A
C3050      H3059   1.084       .  S
C3051      C3052   1.415       .  A
C3051      S3055   1.804       .  S
C3052      C3053   1.400       .  A
C3053      C3054   1.404       .  A
C3053      H3060   1.083       .  S
C3054      S3056   1.807       .  S
S3055      H3058   1.404       .  S
S3056      H3057   1.407       .  S
C3061      C3062   1.411       .  A
C3061      C3066   1.413       .  A
C3062      C3063   1.413   1_556  A
C3062      H3071   1.084       .  S
C3063      C3064   1.414       .  A
C3063      S3067   1.803       .  S
C3064      C3065   1.404       .  A
C3065      C3066   1.399   1_554  A
C3065      H3072   1.085       .  S
C3066      S3068   1.798       .  S
S3067      H3070   1.406       .  S
S3068      H3069   1.405       .  S
C3073      C3074   1.401       .  A
C3073      C3078   1.415       .  A
C3074      C3075   1.399       .  A
C3074      H3083   1.080       .  S
C3075      C3076   1.411       .  A
C3075      S3079   1.804       .  S
C3076      C3077   1.396       .  A
C3077      C3078   1.390       .  A
C3077      H3084   1.084       .  S
C3078      S3080   1.808       .  S
S3079      H3082   1.407       .  S
S3080      H3081   1.406       .  S
C3085      C3086   1.411       .  A
C3085      C3090   1.428       .  A
C3086      C3087   1.419       .  A
C3086      H3095   1.083       .  S
C3087      C3088   1.423       .  A
C3087      S3091   1.799       .  S
C3088      C3089   1.406       .  A
C3089      C3090   1.412       .  A
C3089      H3096   1.082       .  S
C3090      S3092   1.808       .  S
S3091      H3094   1.407       .  S
S3092      H3093   1.407       .  S
C3097      C3098   1.413       .  A
C3097      C3102   1.418       .  A
C3098      C3099   1.402       .  A
C3098      H3107   1.082       .  S
C3099      C3100   1.403       .  A
C3099      S3103   1.808       .  S
C3100      C3101   1.400       .  A
C3101      C3102   1.400       .  A
C3101      H3108   1.083       .  S
C3102      S3104   1.804       .  S
S3103      H3106   1.406       .  S
S3104      H3105   1.406       .  S
C3109      C3110   1.392       .  A
C3109      C3114   1.415       .  A
C3110      C3111   1.391       .  A
C3110      H3119   1.084       .  S
C3111      C3112   1.430       .  A
C3111      S3115   1.806       .  S
C3112      C3113   1.405       .  A
C3113      C3114   1.408       .  A
C3113      H3120   1.080       .  S
C3114      S3116   1.806       .  S
S3115      H3118   1.408       .  S
S3116      H3117   1.407       .  S
C3121      C3122   1.403       .  A
C3121      C3126   1.416       .  A
C3122      C3123   1.402       .  A
C3122      H3131   1.083       .  S
C3123      C3124   1.412       .  A
C3123      S3127   1.803       .  S
C3124      C3125   1.405       .  A
C3125      C3126   1.402       .  A
C3125      H3132   1.084       .  S
C3126      S3128   1.804       .  S
S3127      H3130   1.407       .  S
S3128      H3129   1.402       .  S
C3133      C3134   1.403       .  A
C3133      C3138   1.420       .  A
C3134      C3135   1.408       .  A
C3134      H3143   1.082       .  S
C3135      C3136   1.419       .  A
C3135      S3139   1.803       .  S
C3136      C3137   1.405       .  A
C3137      C3138   1.409       .  A
C3137      H3144   1.084       .  S
C3138      S3140   1.802       .  S
S3139      H3142   1.407       .  S
S3140      H3141   1.407       .  S
C3145      C3146   1.408       .  A
C3145      C3150   1.414       .  A
C3146      C3147   1.410       .  A
C3146      H3155   1.082       .  S
C3147      C3148   1.412       .  A
C3147      S3151   1.807       .  S
C3148      C3149   1.406       .  A
C3149      C3150   1.406       .  A
C3149      H3156   1.083       .  S
C3150      S3152   1.801       .  S
S3151      H3154   1.407       .  S
S3152      H3153   1.406       .  S
C3157      C3158   1.401       .  A
C3157      C3162   1.420       .  A
C3158      C3159   1.388       .  A
C3158      H3167   1.084       .  S
C3159      C3160   1.416       .  A
C3159      S3163   1.807       .  S
C3160      C3161   1.399       .  A
C3161      C3162   1.397       .  A
C3161      H3168   1.084       .  S
C3162      S3164   1.803       .  S
S3163      H3166   1.398       .  S
S3164      H3165   1.408       .  S
C3169      C3170   1.399       .  A
C3169      C3174   1.426       .  A
C3170      C3171   1.402       .  A
C3170      H3179   1.082       .  S
C3171      C3172   1.422       .  A
C3171      S3175   1.803       .  S
C3172      C3173   1.402       .  A
C3173      C3174   1.403       .  A
C3173      H3180   1.082       .  S
C3174      S3176   1.813       .  S
S3175      H3178   1.407       .  S
S3176      H3177   1.406       .  S
C3181      C3182   1.408       .  A
C3181      C3186   1.417       .  A
C3182      C3183   1.417       .  A
C3182      H3191   1.083       .  S
C3183      C3184   1.421       .  A
C3183      S3187   1.797       .  S
C3184      C3185   1.406       .  A
C3185      C3186   1.404       .  A
C3185      H3192   1.082       .  S
C3186      S3188   1.810       .  S
S3187      H3190   1.407       .  S
S3188      H3189   1.407       .  S
C3193      C3194   1.408       .  A
C3193      C3198   1.411       .  A
C3194      C3195   1.411       .  A
C3194      H3203   1.083       .  S
C3195      C3196   1.414       .  A
C3195      S3199   1.804       .  S
C3196      C3197   1.408       .  A
C3197      C3198   1.405       .  A
C3197      H3204   1.084       .  S
C3198      S3200   1.802       .  S
S3199      H3202   1.407       .  S
S3200      H3201   1.407       .  S
C3205      C3206   1.413       .  A
C3205      C3210   1.414       .  A
C3206      C3207   1.401       .  A
C3206      H3215   1.080       .  S
C3207      C3208   1.411       .  A
C3207      S3211   1.800       .  S
C3208      C3209   1.417       .  A
C3209      C3210   1.406       .  A
C3209      H3216   1.083       .  S
C3210      S3212   1.800       .  S
S3211      H3214   1.407       .  S
S3212      H3213   1.407       .  S
C3217      C3218   1.404       .  A
C3217      C3222   1.412       .  A
C3218      C3219   1.389       .  A
C3218      H3227   1.083       .  S
C3219      C3220   1.406       .  A
C3219      S3223   1.803       .  S
C3220      C3221   1.401       .  A
C3221      C3222   1.402       .  A
C3221      H3228   1.084       .  S
C3222      S3224   1.802       .  S
S3223      H3226   1.405       .  S
S3224      H3225   1.403       .  S
C3229      C3230   1.409       .  A
C3229      C3234   1.428       .  A
C3230      C3231   1.407       .  A
C3230      H3239   1.083       .  S
C3231      C3232   1.412       .  A
C3231      S3235   1.802       .  S
C3232      C3233   1.399       .  A
C3233      C3234   1.407       .  A
C3233      H3240   1.083       .  S
C3234      S3236   1.807       .  S
S3235      H3238   1.407       .  S
S3236      H3237   1.407       .  S
C3241      C3242   1.395       .  A
C3241      C3246   1.418       .  A
C3242      C3243   1.394       .  A
C3242      H3251   1.085       .  S
C3243      C3244   1.420       .  A
C3243      S3247   1.803       .  S
C3244      C3245   1.398       .  A
C3245      C3246   1.406       .  A
C3245      H3252   1.083       .  S
C3246      S3248   1.800       .  S
S3247      H3250   1.393       .  S
S3248      H3249   1.407       .  S
C3253      C3254   1.405       .  A
C3253      C3258   1.404       .  A
C3254      C3255   1.410       .  A
C3254      H3263   1.082       .  S
C3255      C3256   1.420   1_556  A
C3255      S3259   1.808   1_556  S
C3256      C3257   1.416       .  A
C3257      C3258   1.406   1_554  A
C3257      H3264   1.082       .  S
C3258      S3260   1.806       .  S
S3259      H3262   1.407   1_554  S
S3260      H3261   1.407       .  S
C3265      C3266   1.405       .  A
C3265      C3270   1.417       .  A
C3266      C3267   1.408   1_655  A
C3266      H3275   1.082       .  S
C3267      C3268   1.416       .  A
C3267      S3271   1.808       .  S
C3268      C3269   1.403       .  A
C3269      C3270   1.406   1_455  A
C3269      H3276   1.083       .  S
C3270      S3272   1.807       .  S
S3271      H3274   1.407       .  S
S3272      H3273   1.407       .  S
C3277      C3278   1.405       .  A
C3277      C3282   1.416       .  A
C3278      C3279   1.415   1_556  A
C3278      H3287   1.084       .  S
C3279      C3280   1.426       .  A
C3279      S3283   1.804       .  S
C3280      C3281   1.411       .  A
C3281      C3282   1.410   1_554  A
C3281      H3288   1.083       .  S
C3282      S3284   1.801       .  S
S3283      H3286   1.402       .  S
S3284      H3285   1.405       .  S
C3289      C3290   1.411       .  A
C3289      C3294   1.419       .  A
C3290      C3291   1.407   1_565  A
C3290      H3299   1.084       .  S
C3291      C3292   1.413       .  A
C3291      S3295   1.804       .  S
C3292      C3293   1.405       .  A
C3293      C3294   1.409   1_545  A
C3293      H3300   1.082       .  S
C3294      S3296   1.806       .  S
S3295      H3298   1.407       .  S
S3296      H3297   1.407       .  S
C3301      C3302   1.408       .  A
C3301      C3306   1.413       .  A
C3302      C3303   1.396       .  A
C3302      H3311   1.083       .  S
C3303      C3304   1.403       .  A
C3303      S3307   1.806       .  S
C3304      C3305   1.410       .  A
C3305      C3306   1.411       .  A
C3305      H3312   1.084       .  S
C3306      S3308   1.802       .  S
S3307      H3310   1.405       .  S
S3308      H3309   1.407       .  S
C3313      C3314   1.414       .  A
C3313      C3318   1.413       .  A
C3314      C3315   1.409   1_655  A
C3314      H3323   1.084       .  S
C3315      C3316   1.412       .  A
C3315      S3319   1.801       .  S
C3316      C3317   1.411       .  A
C3317      C3318   1.400   1_455  A
C3317      H3324   1.084       .  S
C3318      S3320   1.803       .  S
S3319      H3322   1.407       .  S
S3320      H3321   1.408       .  S
C3325      C3326   1.410       .  A
C3325      C3330   1.415       .  A
C3326      C3327   1.404   1_565  A
C3326      H3335   1.082       .  S
C3327      C3328   1.412       .  A
C3327      S3331   1.809       .  S
C3328      C3329   1.409       .  A
C3329      C3330   1.403   1_545  A
C3329      H3336   1.082       .  S
C3330      S3332   1.809       .  S
S3331      H3334   1.407   1_545  S
S3332      H3333   1.406       .  S
C3337      C3338   1.409       .  A
C3337      C3342   1.405       .  A
C3338      C3339   1.407       .  A
C3338      H3347   1.085       .  S
C3339      C3340   1.414       .  A
C3339      S3343   1.800       .  S
C3340      C3341   1.400       .  A
C3341      C3342   1.394       .  A
C3341      H3348   1.092       .  S
C3342      S3344   1.796       .  S
S3343      H3346   1.405       .  S
S3344      H3345   1.404   1_545  S
C3349      C3350   1.401       .  A
C3349      C3354   1.420       .  A
C3350      C3351   1.412       .  A
C3350      H3359   1.084       .  S
C3351      C3352   1.426       .  A
C3351      S3355   1.801       .  S
C3352      C3353   1.404       .  A
C3353      C3354   1.404       .  A
C3353      H3360   1.082       .  S
C3354      S3356   1.812       .  S
S3355      H3358   1.408       .  S
S3356      H3357   1.406       .  S
C3361      C3362   1.404       .  A
C3361      C3366   1.412       .  A
C3362      C3363   1.397       .  A
C3362      H3371   1.083       .  S
C3363      C3364   1.408       .  A
C3363      S3367   1.806       .  S
C3364      C3365   1.406       .  A
C3365      C3366   1.400       .  A
C3365      H3372   1.084       .  S
C3366      S3368   1.801       .  S
S3367      H3370   1.407       .  S
S3368      H3369   1.406       .  S
C3373      C3374   1.408       .  A
C3373      C3378   1.410       .  A
C3374      C3375   1.416       .  A
C3374      H3383   1.080       .  S
C3375      C3376   1.419       .  A
C3375      S3379   1.806       .  S
C3376      C3377   1.415       .  A
C3377      C3378   1.405       .  A
C3377      H3384   1.083       .  S
C3378      S3380   1.801       .  S
S3379      H3382   1.406       .  S
S3380      H3381   1.405       .  S
C3385      C3386   1.408       .  A
C3385      C3390   1.413       .  A
C3386      C3387   1.417       .  A
C3386      H3395   1.075       .  S
C3387      C3388   1.419       .  A
C3387      S3391   1.808       .  S
C3388      C3389   1.413       .  A
C3389      C3390   1.413       .  A
C3389      H3396   1.083       .  S
C3390      S3392   1.803       .  S
S3391      H3394   1.406       .  S
S3392      H3393   1.406       .  S
C3397      C3398   1.391       .  A
C3397      C3402   1.408       .  A
C3398      C3399   1.386       .  A
C3398      H3407   1.087       .  S
C3399      C3400   1.417       .  A
C3399      S3403   1.803       .  S
C3400      C3401   1.404       .  A
C3401      C3402   1.399       .  A
C3401      H3408   1.084       .  S
C3402      S3404   1.803       .  S
S3403      H3406   1.408       .  S
S3404      H3405   1.407       .  S
C3409      C3410   1.402       .  A
C3409      C3414   1.423       .  A
C3410      C3411   1.405       .  A
C3410      H3419   1.081       .  S
C3411      C3412   1.426       .  A
C3411      S3415   1.812       .  S
C3412      C3413   1.411       .  A
C3413      C3414   1.426       .  A
C3413      H3420   1.082       .  S
C3414      S3416   1.804       .  S
S3415      H3418   1.406       .  S
S3416      H3417   1.407       .  S
C3421      C3422   1.399       .  A
C3421      C3426   1.409       .  A
C3422      C3423   1.402       .  A
C3422      H3431   1.071       .  S
C3423      C3424   1.414       .  A
C3423      S3427   1.810       .  S
C3424      C3425   1.405       .  A
C3425      C3426   1.402       .  A
C3425      H3432   1.082       .  S
C3426      S3428   1.808       .  S
S3427      H3430   1.405       .  S
S3428      H3429   1.407       .  S
C3433      C3434   1.412       .  A
C3433      C3438   1.418       .  A
C3434      C3435   1.411       .  A
C3434      H3443   1.084       .  S
C3435      C3436   1.420       .  A
C3435      S3439   1.798       .  S
C3436      C3437   1.411       .  A
C3437      C3438   1.409       .  A
C3437      H3444   1.082       .  S
C3438      S3440   1.809       .  S
S3439      H3442   1.407       .  S
S3440      H3441   1.407       .  S
C3445      C3446   1.410       .  A
C3445      C3450   1.416       .  A
C3446      C3447   1.402       .  A
C3446      H3455   1.083       .  S
C3447      C3448   1.408       .  A
C3447      S3451   1.808       .  S
C3448      C3449   1.404       .  A
C3449      C3450   1.405       .  A
C3449      H3456   1.084       .  S
C3450      S3452   1.800       .  S
S3451      H3454   1.406       .  S
S3452      H3453   1.407       .  S
C3457      C3458   1.413       .  A
C3457      C3462   1.414       .  A
C3458      C3459   1.413       .  A
C3458      H3467   1.082       .  S
C3459      C3460   1.415       .  A
C3459      S3463   1.808       .  S
C3460      C3461   1.408       .  A
C3461      C3462   1.406       .  A
C3461      H3468   1.082       .  S
C3462      S3464   1.804       .  S
S3463      H3466   1.407       .  S
S3464      H3465   1.408       .  S
C3469      C3470   1.410       .  A
C3469      C3474   1.408       .  A
C3470      C3471   1.397       .  A
C3470      H3479   1.084       .  S
C3471      C3472   1.403       .  A
C3471      S3475   1.802       .  S
C3472      C3473   1.405       .  A
C3473      C3474   1.389       .  A
C3473      H3480   1.084       .  S
C3474      S3476   1.803       .  S
S3475      H3478   1.407       .  S
S3476      H3477   1.408       .  S
C3481      C3482   1.405       .  A
C3481      C3486   1.414       .  A
C3482      C3483   1.400       .  A
C3482      H3491   1.083       .  S
C3483      C3484   1.413       .  A
C3483      S3487   1.810       .  S
C3484      C3485   1.409       .  A
C3485      C3486   1.416       .  A
C3485      H3492   1.083       .  S
C3486      S3488   1.799       .  S
S3487      H3490   1.406       .  S
S3488      H3489   1.407       .  S
C3493      C3494   1.412       .  A
C3493      C3498   1.413       .  A
C3494      C3495   1.407       .  A
C3494      H3503   1.084       .  S
C3495      C3496   1.415       .  A
C3495      S3499   1.800       .  S
C3496      C3497   1.414       .  A
C3497      C3498   1.408       .  A
C3497      H3504   1.084       .  S
C3498      S3500   1.802       .  S
S3499      H3502   1.407       .  S
S3500      H3501   1.406       .  S
C3505      C3506   1.406       .  A
C3505      C3510   1.409       .  A
C3506      C3507   1.408       .  A
C3506      H3515   1.082       .  S
C3507      C3508   1.415       .  A
C3507      S3511   1.806       .  S
C3508      C3509   1.413       .  A
C3509      C3510   1.407       .  A
C3509      H3516   1.084       .  S
C3510      S3512   1.804       .  S
S3511      H3514   1.407       .  S
S3512      H3513   1.406       .  S
C3517      C3518   1.404       .  A
C3517      C3522   1.422       .  A
C3518      C3519   1.410       .  A
C3518      H3527   1.082       .  S
C3519      C3520   1.424       .  A
C3519      S3523   1.809       .  S
C3520      C3521   1.404       .  A
C3521      C3522   1.398       .  A
C3521      H3528   1.084       .  S
C3522      S3524   1.805       .  S
S3523      H3526   1.406       .  S
S3524      H3525   1.405       .  S
C3529      C3530   1.406       .  A
C3529      C3534   1.408       .  A
C3530      C3531   1.402       .  A
C3530      H3539   1.083       .  S
C3531      C3532   1.410       .  A
C3531      S3535   1.807       .  S
C3532      C3533   1.407       .  A
C3533      C3534   1.394       .  A
C3533      H3540   1.084       .  S
C3534      S3536   1.802       .  S
S3535      H3538   1.407       .  S
S3536      H3537   1.404       .  S
C3541      C3542   1.402       .  A
C3541      C3546   1.422       .  A
C3542      C3543   1.407       .  A
C3542      H3551   1.083       .  S
C3543      C3544   1.420       .  A
C3543      S3547   1.797       .  S
C3544      C3545   1.397       .  A
C3545      C3546   1.395       .  A
C3545      H3552   1.083       .  S
C3546      S3548   1.813       .  S
S3547      H3550   1.407       .  S
S3548      H3549   1.406       .  S
C3553      C3554   1.403       .  A
C3553      C3558   1.413       .  A
C3554      C3555   1.410       .  A
C3554      H3563   1.083       .  S
C3555      C3556   1.413       .  A
C3555      S3559   1.802       .  S
C3556      C3557   1.403       .  A
C3557      C3558   1.405       .  A
C3557      H3564   1.083       .  S
C3558      S3560   1.806       .  S
S3559      H3562   1.407       .  S
S3560      H3561   1.407       .  S
C3565      C3566   1.400       .  A
C3565      C3570   1.406       .  A
C3566      C3567   1.397       .  A
C3566      H3575   1.084       .  S
C3567      C3568   1.410       .  A
C3567      S3571   1.801       .  S
C3568      C3569   1.399       .  A
C3569      C3570   1.391       .  A
C3569      H3576   1.083       .  S
C3570      S3572   1.802       .  S
S3571      H3574   1.407       .  S
S3572      H3573   1.406       .  S
C3577      C3578   1.419       .  A
C3577      C3582   1.409       .  A
C3578      C3579   1.404       .  A
C3578      H3587   1.082       .  S
C3579      C3580   1.404       .  A
C3579      S3583   1.800       .  S
C3580      C3581   1.411       .  A
C3581      C3582   1.411       .  A
C3581      H3588   1.078       .  S
C3582      S3584   1.796       .  S
S3583      H3586   1.405       .  S
S3584      H3585   1.406       .  S
C3589      C3590   1.409       .  A
C3589      C3594   1.421       .  A
C3590      C3591   1.405       .  A
C3590      H3599   1.078       .  S
C3591      C3592   1.414       .  A
C3591      S3595   1.806       .  S
C3592      C3593   1.409       .  A
C3593      C3594   1.417       .  A
C3593      H3600   1.084       .  S
C3594      S3596   1.796       .  S
S3595      H3598   1.407       .  S
S3596      H3597   1.407       .  S
C3601      C3602   1.404       .  A
C3601      C3606   1.411       .  A
C3602      C3603   1.408       .  A
C3602      H3611   1.083       .  S
C3603      C3604   1.420       .  A
C3603      S3607   1.799       .  S
C3604      C3605   1.411       .  A
C3605      C3606   1.408       .  A
C3605      H3612   1.082       .  S
C3606      S3608   1.806       .  S
S3607      H3610   1.407       .  S
S3608      H3609   1.407       .  S
C3613      C3614   1.413       .  A
C3613      C3618   1.407       .  A
C3614      C3615   1.411       .  A
C3614      H3623   1.083       .  S
C3615      C3616   1.409       .  A
C3615      S3619   1.803       .  S
C3616      C3617   1.423       .  A
C3617      C3618   1.418       .  A
C3617      H3624   1.082       .  S
C3618      S3620   1.806       .  S
S3619      H3622   1.406       .  S
S3620      H3621   1.406       .  S
C3625      C3626   1.401       .  A
C3625      C3630   1.418       .  A
C3626      C3627   1.413       .  A
C3626      H3635   1.082       .  S
C3627      C3628   1.430       .  A
C3627      S3631   1.811       .  S
C3628      C3629   1.395       .  A
C3629      C3630   1.396       .  A
C3629      H3636   1.083       .  S
C3630      S3632   1.795       .  S
S3631      H3634   1.407       .  S
S3632      H3633   1.407       .  S
C3637      C3638   1.401       .  A
C3637      C3642   1.411       .  A
C3638      C3639   1.400       .  A
C3638      H3647   1.085       .  S
C3639      C3640   1.420       .  A
C3639      S3643   1.805       .  S
C3640      C3641   1.408       .  A
C3641      C3642   1.401       .  A
C3641      H3648   1.084       .  S
C3642      S3644   1.802       .  S
S3643      H3646   1.404       .  S
S3644      H3645   1.405       .  S
C3649      C3650   1.403       .  A
C3649      C3654   1.436       .  A
C3650      C3651   1.408       .  A
C3650      H3659   1.082       .  S
C3651      C3652   1.416       .  A
C3651      S3655   1.803       .  S
C3652      C3653   1.387       .  A
C3653      C3654   1.390       .  A
C3653      H3660   1.086       .  S
C3654      S3656   1.810       .  S
S3655      H3658   1.406       .  S
S3656      H3657   1.378   1_554  S
C3661      C3662   1.407       .  A
C3661      C3666   1.415       .  A
C3662      C3663   1.407       .  A
C3662      H3671   1.083       .  S
C3663      C3664   1.423       .  A
C3663      S3667   1.811       .  S
C3664      C3665   1.410       .  A
C3665      C3666   1.407       .  A
C3665      H3672   1.083       .  S
C3666      S3668   1.799       .  S
S3667      H3670   1.407       .  S
S3668      H3669   1.407       .  S
C3673      C3674   1.404       .  A
C3673      C3678   1.413       .  A
C3674      C3675   1.406       .  A
C3674      H3683   1.084       .  S
C3675      C3676   1.416       .  A
C3675      S3679   1.802       .  S
C3676      C3677   1.403       .  A
C3677      C3678   1.398       .  A
C3677      H3684   1.083       .  S
C3678      S3680   1.806       .  S
S3679      H3682   1.405       .  S
S3680      H3681   1.407       .  S
C3685      C3686   1.404       .  A
C3685      C3690   1.408       .  A
C3686      C3687   1.401       .  A
C3686      H3695   1.084       .  S
C3687      C3688   1.413       .  A
C3687      S3691   1.802       .  S
C3688      C3689   1.405       .  A
C3689      C3690   1.388       .  A
C3689      H3696   1.082       .  S
C3690      S3692   1.811       .  S
S3691      H3694   1.407       .  S
S3692      H3693   1.407       .  S
C3697      C3698   1.404       .  A
C3697      C3702   1.418       .  A
C3698      C3699   1.407       .  A
C3698      H3707   1.084       .  S
C3699      C3700   1.422       .  A
C3699      S3703   1.799       .  S
C3700      C3701   1.399       .  A
C3701      C3702   1.395       .  A
C3701      H3708   1.083       .  S
C3702      S3704   1.803       .  S
S3703      H3706   1.407       .  S
S3704      H3705   1.407       .  S
C3709      C3710   1.410       .  A
C3709      C3714   1.421       .  A
C3710      C3711   1.417       .  A
C3710      H3719   1.082       .  S
C3711      C3712   1.422       .  A
C3711      S3715   1.806       .  S
C3712      C3713   1.409       .  A
C3713      C3714   1.405       .  A
C3713      H3720   1.084       .  S
C3714      S3716   1.802       .  S
S3715      H3718   1.407       .  S
S3716      H3717   1.408       .  S
C3721      C3722   1.403       .  A
C3721      C3726   1.417       .  A
C3722      C3723   1.403       .  A
C3722      H3731   1.084       .  S
C3723      C3724   1.412       .  A
C3723      S3727   1.796       .  S
C3724      C3725   1.400       .  A
C3725      C3726   1.400       .  A
C3725      H3732   1.083       .  S
C3726      S3728   1.811       .  S
S3727      H3730   1.404       .  S
S3728      H3729   1.407       .  S
C3733      C3734   1.402       .  A
C3733      C3738   1.406       .  A
C3734      C3735   1.393       .  A
C3734      H3743   1.085       .  S
C3735      C3736   1.408       .  A
C3735      S3739   1.805       .  S
C3736      C3737   1.404       .  A
C3737      C3738   1.396       .  A
C3737      H3744   1.084       .  S
C3738      S3740   1.802       .  S
S3739      H3742   1.407       .  S
S3740      H3741   1.406       .  S
C3745      C3746   1.405       .  A
C3745      C3750   1.407       .  A
C3746      C3747   1.402       .  A
C3746      H3755   1.083       .  S
C3747      C3748   1.417       .  A
C3747      S3751   1.805       .  S
C3748      C3749   1.413       .  A
C3749      C3750   1.404       .  A
C3749      H3756   1.082       .  S
C3750      S3752   1.807       .  S
S3751      H3754   1.407       .  S
S3752      H3753   1.406       .  S
C3757      C3758   1.412       .  A
C3757      C3762   1.425       .  A
C3758      C3759   1.411       .  A
C3758      H3767   1.083       .  S
C3759      C3760   1.411       .  A
C3759      S3763   1.802       .  S
C3760      C3761   1.400       .  A
C3761      C3762   1.403       .  A
C3761      H3768   1.083       .  S
C3762      S3764   1.813       .  S
S3763      H3766   1.406       .  S
S3764      H3765   1.407       .  S
C3769      C3770   1.399       .  A
C3769      C3774   1.412       .  A
C3770      C3771   1.397       .  A
C3770      H3779   1.083       .  S
C3771      C3772   1.426       .  A
C3771      S3775   1.815       .  S
C3772      C3773   1.412       .  A
C3773      C3774   1.418       .  A
C3773      H3780   1.082       .  S
C3774      S3776   1.801       .  S
S3775      H3778   1.406       .  S
S3776      H3777   1.407       .  S
C3781      C3782   1.397       .  A
C3781      C3786   1.410       .  A
C3782      C3783   1.397       .  A
C3782      H3791   1.099       .  S
C3783      C3784   1.413       .  A
C3783      S3787   1.804       .  S
C3784      C3785   1.406       .  A
C3785      C3786   1.404       .  A
C3785      H3792   1.085       .  S
C3786      S3788   1.807       .  S
S3787      H3790   1.407       .  S
S3788      H3789   1.407       .  S
C3793      C3794   1.402       .  A
C3793      C3798   1.416       .  A
C3794      C3795   1.396       .  A
C3794      H3803   1.068       .  S
C3795      C3796   1.410       .  A
C3795      S3799   1.808       .  S
C3796      C3797   1.408       .  A
C3797      C3798   1.411       .  A
C3797      H3804   1.081       .  S
C3798      S3800   1.806       .  S
S3799      H3802   1.401       .  S
S3800      H3801   1.407       .  S
C3805      C3806   1.408       .  A
C3805      C3810   1.421       .  A
C3806      C3807   1.413       .  A
C3806      H3815   1.084       .  S
C3807      C3808   1.421       .  A
C3807      S3811   1.802       .  S
C3808      C3809   1.402       .  A
C3809      C3810   1.395       .  A
C3809      H3816   1.081       .  S
C3810      S3812   1.813       .  S
S3811      H3814   1.401       .  S
S3812      H3813   1.407       .  S
C3817      C3818   1.405       .  A
C3817      C3822   1.419       .  A
C3818      C3819   1.411       .  A
C3818      H3827   1.082       .  S
C3819      C3820   1.422       .  A
C3819      S3823   1.809       .  S
C3820      C3821   1.400       .  A
C3821      C3822   1.395       .  A
C3821      H3828   1.082       .  S
C3822      S3824   1.808       .  S
S3823      H3826   1.407       .  S
S3824      H3825   1.407       .  S
C3829      C3830   1.408       .  A
C3829      C3834   1.412       .  A
C3830      C3831   1.411       .  A
C3830      H3839   1.083       .  S
C3831      C3832   1.414       .  A
C3831      S3835   1.801       .  S
C3832      C3833   1.408       .  A
C3833      C3834   1.406       .  A
C3833      H3840   1.084       .  S
C3834      S3836   1.803       .  S
S3835      H3838   1.407       .  S
S3836      H3837   1.407       .  S
C3841      C3842   1.409       .  A
C3841      C3846   1.417       .  A
C3842      C3843   1.403       .  A
C3842      H3851   1.082       .  S
C3843      C3844   1.423       .  A
C3843      S3847   1.816       .  S
C3844      C3845   1.415       .  A
C3845      C3846   1.416       .  A
C3845      H3852   1.083       .  S
C3846      S3848   1.799       .  S
S3847      H3850   1.406       .  S
S3848      H3849   1.407       .  S
C3853      C3854   1.412       .  A
C3853      C3858   1.424       .  A
C3854      C3855   1.406       .  A
C3854      H3863   1.083       .  S
C3855      C3856   1.408       .  A
C3855      S3859   1.803       .  S
C3856      C3857   1.397       .  A
C3857      C3858   1.396       .  A
C3857      H3864   1.083       .  S
C3858      S3860   1.813       .  S
S3859      H3862   1.404       .  S
S3860      H3861   1.407       .  S
C3865      C3866   1.408       .  A
C3865      C3870   1.415       .  A
C3866      C3867   1.388       .  A
C3866      H3875   1.084       .  S
C3867      C3868   1.406       .  A
C3867      S3871   1.802       .  S
C3868      C3869   1.406       .  A
C3869      C3870   1.401       .  A
C3869      H3876   1.084       .  S
C3870      S3872   1.804       .  S
S3871      H3874   1.405       .  S
S3872      H3873   1.404       .  S
C3877      C3878   1.407       .  A
C3877      C3882   1.418       .  A
C3878      C3879   1.402       .  A
C3878      H3887   1.082       .  S
C3879      C3880   1.413       .  A
C3879      S3883   1.806       .  S
C3880      C3881   1.410       .  A
C3881      C3882   1.414       .  A
C3881      H3888   1.083       .  S
C3882      S3884   1.798       .  S
S3883      H3886   1.406       .  S
S3884      H3885   1.407       .  S
C3889      C3890   1.403       .  A
C3889      C3894   1.412       .  A
C3890      C3891   1.400       .  A
C3890      H3899   1.083       .  S
C3891      C3892   1.415       .  A
C3891      S3895   1.809       .  S
C3892      C3893   1.406       .  A
C3893      C3894   1.404       .  A
C3893      H3900   1.084       .  S
C3894      S3896   1.801       .  S
S3895      H3898   1.406       .  S
S3896      H3897   1.406       .  S
C3901      C3902   1.402       .  A
C3901      C3906   1.417       .  A
C3902      C3903   1.406       .  A
C3902      H3911   1.083       .  S
C3903      C3904   1.419       .  A
C3903      S3907   1.810       .  S
C3904      C3905   1.407       .  A
C3905      C3906   1.412       .  A
C3905      H3912   1.084       .  S
C3906      S3908   1.800       .  S
S3907      H3910   1.406       .  S
S3908      H3909   1.403       .  S
C3913      C3914   1.398       .  A
C3913      C3918   1.410       .  A
C3914      C3915   1.394       .  A
C3914      H3923   1.096       .  S
C3915      C3916   1.407       .  A
C3915      S3919   1.791       .  S
C3916      C3917   1.407       .  A
C3917      C3918   1.408       .  A
C3917      H3924   1.085       .  S
C3918      S3920   1.805       .  S
S3919      H3922   1.406       .  S
S3920      H3921   1.407       .  S
C3925      C3926   1.393       .  A
C3925      C3930   1.412       .  A
C3926      C3927   1.388       .  A
C3926      H3935   1.079       .  S
C3927      C3928   1.418       .  A
C3927      S3931   1.808       .  S
C3928      C3929   1.404       .  A
C3929      C3930   1.404       .  A
C3929      H3936   1.083       .  S
C3930      S3932   1.797       .  S
S3931      H3934   1.406       .  S
S3932      H3933   1.403       .  S
C3937      C3938   1.404       .  A
C3937      C3942   1.421       .  A
C3938      C3939   1.411       .  A
C3938      H3947   1.083       .  S
C3939      C3940   1.426       .  A
C3939      S3943   1.808       .  S
C3940      C3941   1.408       .  A
C3941      C3942   1.415       .  A
C3941      H3948   1.083       .  S
C3942      S3944   1.799       .  S
S3943      H3946   1.407       .  S
S3944      H3945   1.407       .  S
C3949      C3950   1.409       .  A
C3949      C3954   1.415       .  A
C3950      C3951   1.401       .  A
C3950      H3959   1.082       .  S
C3951      C3952   1.415       .  A
C3951      S3955   1.810       .  S
C3952      C3953   1.407       .  A
C3953      C3954   1.394       .  A
C3953      H3960   1.084       .  S
C3954      S3956   1.802       .  S
S3955      H3958   1.406       .  S
S3956      H3957   1.408       .  S
C3961      C3962   1.403       .  A
C3961      C3966   1.423       .  A
C3962      C3963   1.404       .  A
C3962      H3971   1.083       .  S
C3963      C3964   1.418       .  A
C3963      S3967   1.809       .  S
C3964      C3965   1.403       .  A
C3965      C3966   1.412       .  A
C3965      H3972   1.084       .  S
C3966      S3968   1.802       .  S
S3967      H3970   1.407       .  S
S3968      H3969   1.407       .  S
C3973      C3974   1.402       .  A
C3973      C3978   1.416       .  A
C3974      C3975   1.396       .  A
C3974      H3983   1.083       .  S
C3975      C3976   1.415       .  A
C3975      S3979   1.813       .  S
C3976      C3977   1.402       .  A
C3977      C3978   1.406       .  A
C3977      H3984   1.083       .  S
C3978      S3980   1.807       .  S
S3979      H3982   1.406       .  S
S3980      H3981   1.407       .  S
C3985      C3986   1.410       .  A
C3985      C3990   1.416       .  A
C3986      C3987   1.400       .  A
C3986      H3995   1.081       .  S
C3987      C3988   1.414       .  A
C3987      S3991   1.812       .  S
C3988      C3989   1.409       .  A
C3989      C3990   1.408       .  A
C3989      H3996   1.084       .  S
C3990      S3992   1.801       .  S
S3991      H3994   1.406       .  S
S3992      H3993   1.407       .  S
C3997      C3998   1.404       .  A
C3997      C4002   1.414       .  A
C3998      C3999   1.409       .  A
C3998      H4007   1.083       .  S
C3999      C4000   1.423       .  A
C3999      S4003   1.812       .  S
C4000      C4001   1.399       .  A
C4001      C4002   1.396       .  A
C4001      H4008   1.082       .  S
C4002      S4004   1.803       .  S
S4003      H4006   1.407       .  S
S4004      H4005   1.407       .  S
C4009      C4010   1.414       .  A
C4009      C4014   1.417       .  A
C4010      C4011   1.409       .  A
C4010      H4019   1.083       .  S
C4011      C4012   1.417       .  A
C4011      S4015   1.802       .  S
C4012      C4013   1.411       .  A
C4013      C4014   1.410       .  A
C4013      H4020   1.082       .  S
C4014      S4016   1.808       .  S
S4015      H4018   1.408       .  S
S4016      H4017   1.406       .  S
C4021      C4022   1.411       .  A
C4021      C4026   1.412       .  A
C4022      C4023   1.405       .  A
C4022      H4031   1.084       .  S
C4023      C4024   1.413       .  A
C4023      S4027   1.805       .  S
C4024      C4025   1.405       .  A
C4025      C4026   1.398       .  A
C4025      H4032   1.084       .  S
C4026      S4028   1.797       .  S
S4027      H4030   1.402       .  S
S4028      H4029   1.407       .  S
C4033      C4034   1.411       .  A
C4033      C4038   1.416       .  A
C4034      C4035   1.401       .  A
C4034      H4043   1.083       .  S
C4035      C4036   1.414       .  A
C4035      S4039   1.799       .  S
C4036      C4037   1.412       .  A
C4037      C4038   1.407       .  A
C4037      H4044   1.082       .  S
C4038      S4040   1.810       .  S
S4039      H4042   1.408       .  S
S4040      H4041   1.407       .  S
C4045      C4046   1.403       .  A
C4045      C4050   1.420       .  A
C4046      C4047   1.403       .  A
C4046      H4055   1.082       .  S
C4047      C4048   1.415       .  A
C4047      S4051   1.809       .  S
C4048      C4049   1.404       .  A
C4049      C4050   1.395       .  A
C4049      H4056   1.083       .  S
C4050      S4052   1.810       .  S
S4051      H4054   1.406       .  S
S4052      H4053   1.406       .  S
C4057      C4058   1.407       .  A
C4057      C4062   1.418       .  A
C4058      C4059   1.401       .  A
C4058      H4067   1.083       .  S
C4059      C4060   1.413       .  A
C4059      S4063   1.792       .  S
C4060      C4061   1.410       .  A
C4061      C4062   1.411       .  A
C4061      H4068   1.081       .  S
C4062      S4064   1.808       .  S
S4063      H4066   1.404       .  S
S4064      H4065   1.407       .  S
C4069      C4070   1.402       .  A
C4069      C4074   1.418       .  A
C4070      C4071   1.396       .  A
C4070      H4079   1.082       .  S
C4071      C4072   1.424       .  A
C4071      S4075   1.814       .  S
C4072      C4073   1.406       .  A
C4073      C4074   1.406       .  A
C4073      H4080   1.084       .  S
C4074      S4076   1.800       .  S
S4075      H4078   1.406       .  S
S4076      H4077   1.408       .  S
C4081      C4082   1.406       .  A
C4081      C4086   1.420       .  A
C4082      C4083   1.404       .  A
C4082      H4091   1.083       .  S
C4083      C4084   1.420       .  A
C4083      S4087   1.808       .  S
C4084      C4085   1.407       .  A
C4085      C4086   1.409       .  A
C4085      H4092   1.084       .  S
C4086      S4088   1.800       .  S
S4087      H4090   1.407       .  S
S4088      H4089   1.407       .  S
C4093      C4094   1.404       .  A
C4093      C4098   1.418       .  A
C4094      C4095   1.396       .  A
C4094      H4103   1.078       .  S
C4095      C4096   1.410       .  A
C4095      S4099   1.810       .  S
C4096      C4097   1.402       .  A
C4097      C4098   1.405       .  A
C4097      H4104   1.083       .  S
C4098      S4100   1.809       .  S
S4099      H4102   1.406       .  S
S4100      H4101   1.407       .  S
C4105      C4106   1.404       .  A
C4105      C4110   1.412       .  A
C4106      C4107   1.388       .  A
C4106      H4115   1.082       .  S
C4107      C4108   1.409       .  A
C4107      S4111   1.811       .  S
C4108      C4109   1.400       .  A
C4109      C4110   1.397       .  A
C4109      H4116   1.083       .  S
C4110      S4112   1.808       .  S
S4111      H4114   1.407       .  S
S4112      H4113   1.407       .  S
C4117      C4118   1.413       .  A
C4117      C4122   1.414       .  A
C4118      C4119   1.412       .  A
C4118      H4127   1.082       .  S
C4119      C4120   1.413       .  A
C4119      S4123   1.807       .  S
C4120      C4121   1.407       .  A
C4121      C4122   1.396       .  A
C4121      H4128   1.079       .  S
C4122      S4124   1.814       .  S
S4123      H4126   1.407       .  S
S4124      H4125   1.405       .  S
C4129      C4130   1.405       .  A
C4129      C4134   1.421       .  A
C4130      C4131   1.406       .  A
C4130      H4139   1.084       .  S
C4131      C4132   1.418       .  A
C4131      S4135   1.801       .  S
C4132      C4133   1.400       .  A
C4133      C4134   1.395       .  A
C4133      H4140   1.084       .  S
C4134      S4136   1.805       .  S
S4135      H4138   1.407       .  S
S4136      H4137   1.407       .  S
C4141      C4142   1.414       .  A
C4141      C4146   1.419       .  A
C4142      C4143   1.413       .  A
C4142      H4151   1.082       .  S
C4143      C4144   1.417       .  A
C4143      S4147   1.810       .  S
C4144      C4145   1.407       .  A
C4145      C4146   1.408       .  A
C4145      H4152   1.082       .  S
C4146      S4148   1.808       .  S
S4147      H4150   1.406       .  S
S4148      H4149   1.406       .  S
C4153      C4154   1.403       .  A
C4153      C4158   1.408       .  A
C4154      C4155   1.402       .  A
C4154      H4163   1.080       .  S
C4155      C4156   1.408       .  A
C4155      S4159   1.800       .  S
C4156      C4157   1.403       .  A
C4157      C4158   1.396       .  A
C4157      H4164   1.083       .  S
C4158      S4160   1.807       .  S
S4159      H4162   1.406       .  S
S4160      H4161   1.407       .  S
C4165      C4166   1.402       .  A
C4165      C4170   1.416       .  A
C4166      C4167   1.398       .  A
C4166      H4175   1.084       .  S
C4167      C4168   1.412       .  A
C4167      S4171   1.804       .  S
C4168      C4169   1.398       .  A
C4169      C4170   1.398       .  A
C4169      H4176   1.082       .  S
C4170      S4172   1.809       .  S
S4171      H4174   1.407       .  S
S4172      H4173   1.406       .  S
C4177      C4178   1.404       .  A
C4177      C4182   1.413       .  A
C4178      C4179   1.400       .  A
C4178      H4187   1.082       .  S
C4179      C4180   1.419       .  A
C4179      S4183   1.812       .  S
C4180      C4181   1.414       .  A
C4181      C4182   1.410       .  A
C4181      H4188   1.083       .  S
C4182      S4184   1.802       .  S
S4183      H4186   1.406       .  S
S4184      H4185   1.407       .  S
C4189      C4190   1.409       .  A
C4189      C4194   1.419       .  A
C4190      C4191   1.421       .  A
C4190      H4199   1.082       .  S
C4191      C4192   1.420       .  A
C4191      S4195   1.806       .  S
C4192      C4193   1.405       .  A
C4193      C4194   1.406       .  A
C4193      H4200   1.084       .  S
C4194      S4196   1.796       .  S
S4195      H4198   1.407       .  S
S4196      H4197   1.401       .  S
C4201      C4202   1.398       .  A
C4201      C4206   1.409       .  A
C4202      C4203   1.395       .  A
C4202      H4211   1.083       .  S
C4203      C4204   1.413       .  A
C4203      S4207   1.802       .  S
C4204      C4205   1.405       .  A
C4205      C4206   1.394       .  A
C4205      H4212   1.084       .  S
C4206      S4208   1.801       .  S
S4207      H4210   1.407       .  S
S4208      H4209   1.406       .  S
C4213      C4214   1.412       .  A
C4213      C4218   1.409       .  A
C4214      C4215   1.385       .  A
C4214      H4223   1.083       .  S
C4215      C4216   1.401       .  A
C4215      S4219   1.805       .  S
C4216      C4217   1.406       .  A
C4217      C4218   1.397       .  A
C4217      H4224   1.084       .  S
C4218      S4220   1.802       .  S
S4219      H4222   1.406       .  S
S4220      H4221   1.408       .  S
C4225      C4226   1.406       .  A
C4225      C4230   1.419       .  A
C4226      C4227   1.409       .  A
C4226      H4235   1.084       .  S
C4227      C4228   1.419       .  A
C4227      S4231   1.799       .  S
C4228      C4229   1.404       .  A
C4229      C4230   1.394       .  A
C4229      H4236   1.082       .  S
C4230      S4232   1.813       .  S
S4231      H4234   1.408       .  S
S4232      H4233   1.405       .  S
C4237      C4238   1.403       .  A
C4237      C4242   1.402       .  A
C4238      C4239   1.403       .  A
C4238      H4247   1.083       .  S
C4239      C4240   1.414       .  A
C4239      S4243   1.809       .  S
C4240      C4241   1.411       .  A
C4241      C4242   1.398       .  A
C4241      H4248   1.083       .  S
C4242      S4244   1.808       .  S
S4243      H4246   1.407       .  S
S4244      H4245   1.407       .  S
C4249      C4250   1.414       .  A
C4249      C4254   1.412       .  A
C4250      C4251   1.400       .  A
C4250      H4259   1.084       .  S
C4251      C4252   1.408       .  A
C4251      S4255   1.802       .  S
C4252      C4253   1.413       .  A
C4253      C4254   1.407       .  A
C4253      H4260   1.082       .  S
C4254      S4256   1.808       .  S
S4255      H4258   1.407       .  S
S4256      H4257   1.406       .  S
C4261      C4262   1.408       .  A
C4261      C4266   1.423       .  A
C4262      C4263   1.413       .  A
C4262      H4271   1.082       .  S
C4263      C4264   1.421       .  A
C4263      S4267   1.809       .  S
C4264      C4265   1.406       .  A
C4265      C4266   1.411       .  A
C4265      H4272   1.083       .  S
C4266      S4268   1.800       .  S
S4267      H4270   1.406       .  S
S4268      H4269   1.408       .  S
C4273      C4274   1.401       .  A
C4273      C4278   1.425       .  A
C4274      C4275   1.397       .  A
C4274      H4283   1.082       .  S
C4275      C4276   1.417       .  A
C4275      S4279   1.807       .  S
C4276      C4277   1.402       .  A
C4277      C4278   1.410       .  A
C4277      H4284   1.082       .  S
C4278      S4280   1.806       .  S
S4279      H4282   1.406       .  S
S4280      H4281   1.408       .  S
C4285      C4286   1.404       .  A
C4285      C4290   1.415       .  A
C4286      C4287   1.398       .  A
C4286      H4295   1.084       .  S
C4287      C4288   1.412       .  A
C4287      S4291   1.800       .  S
C4288      C4289   1.399       .  A
C4289      C4290   1.394       .  A
C4289      H4296   1.083       .  S
C4290      S4292   1.809       .  S
S4291      H4294   1.406       .  S
S4292      H4293   1.407       .  S
C4297      C4298   1.407       .  A
C4297      C4302   1.417       .  A
C4298      C4299   1.398       .  A
C4298      H4307   1.084       .  S
C4299      C4300   1.415       .  A
C4299      S4303   1.803       .  S
C4300      C4301   1.411       .  A
C4301      C4302   1.419       .  A
C4301      H4308   1.082       .  S
C4302      S4304   1.804       .  S
S4303      H4306   1.406       .  S
S4304      H4305   1.407       .  S
C4309      C4310   1.405       .  A
C4309      C4314   1.415       .  A
C4310      C4311   1.401       .  A
C4310      H4319   1.083       .  S
C4311      C4312   1.410       .  A
C4311      S4315   1.806       .  S
C4312      C4313   1.404       .  A
C4313      C4314   1.408       .  A
C4313      H4320   1.081       .  S
C4314      S4316   1.799       .  S
S4315      H4318   1.407       .  S
S4316      H4317   1.407       .  S
C4321      C4322   1.407       .  A
C4321      C4326   1.418       .  A
C4322      C4323   1.413       .  A
C4322      H4331   1.082       .  S
C4323      C4324   1.421       .  A
C4323      S4327   1.807       .  S
C4324      C4325   1.413       .  A
C4325      C4326   1.412       .  A
C4325      H4332   1.082       .  S
C4326      S4328   1.811       .  S
S4327      H4330   1.405       .  S
S4328      H4329   1.406       .  S
C4333      C4334   1.409       .  A
C4333      C4338   1.417       .  A
C4334      C4335   1.404       .  A
C4334      H4343   1.082       .  S
C4335      C4336   1.415       .  A
C4335      S4339   1.810       .  S
C4336      C4337   1.409       .  A
C4337      C4338   1.409       .  A
C4337      H4344   1.082       .  S
C4338      S4340   1.800       .  S
S4339      H4342   1.407       .  S
S4340      H4341   1.407       .  S
C4345      C4346   1.401       .  A
C4345      C4350   1.414       .  A
C4346      C4347   1.394       .  A
C4346      H4355   1.084       .  S
C4347      C4348   1.413       .  A
C4347      S4351   1.797       .  S
C4348      C4349   1.409       .  A
C4349      C4350   1.408       .  A
C4349      H4356   1.084       .  S
C4350      S4352   1.800       .  S
S4351      H4354   1.407       .  S
S4352      H4353   1.405       .  S
C4357      C4358   1.399       .  A
C4357      C4362   1.411       .  A
C4358      C4359   1.397       .  A
C4358      H4367   1.083       .  S
C4359      C4360   1.414       .  A
C4359      S4363   1.808       .  S
C4360      C4361   1.398       .  A
C4361      C4362   1.394       .  A
C4361      H4368   1.084       .  S
C4362      S4364   1.802       .  S
S4363      H4366   1.406       .  S
S4364      H4365   1.407       .  S
C4369      C4370   1.405       .  A
C4369      C4374   1.413       .  A
C4370      C4371   1.400       .  A
C4370      H4379   1.084       .  S
C4371      C4372   1.413       .  A
C4371      S4375   1.808       .  S
C4372      C4373   1.402       .  A
C4373      C4374   1.399       .  A
C4373      H4380   1.084       .  S
C4374      S4376   1.804       .  S
S4375      H4378   1.401       .  S
S4376      H4377   1.400       .  S
C4381      C4382   1.407       .  A
C4381      C4386   1.411       .  A
C4382      C4383   1.395       .  A
C4382      H4391   1.077       .  S
C4383      C4384   1.412       .  A
C4383      S4387   1.803       .  S
C4384      C4385   1.414       .  A
C4385      C4386   1.405       .  A
C4385      H4392   1.083       .  S
C4386      S4388   1.799       .  S
S4387      H4390   1.408       .  S
S4388      H4389   1.407       .  S
C4393      C4394   1.407       .  A
C4393      C4398   1.418       .  A
C4394      C4395   1.396       .  A
C4394      H4403   1.084       .  S
C4395      C4396   1.412       .  A
C4395      S4399   1.804       .  S
C4396      C4397   1.403       .  A
C4397      C4398   1.400       .  A
C4397      H4404   1.084       .  S
C4398      S4400   1.800       .  S
S4399      H4402   1.407       .  S
S4400      H4401   1.407       .  S
C4405      C4406   1.411       .  A
C4405      C4410   1.421       .  A
C4406      C4407   1.402       .  A
C4406      H4415   1.083       .  S
C4407      C4408   1.412       .  A
C4407      S4411   1.799       .  S
C4408      C4409   1.406       .  A
C4409      C4410   1.399       .  A
C4409      H4416   1.083       .  S
C4410      S4412   1.812       .  S
S4411      H4414   1.407       .  S
S4412      H4413   1.407       .  S
C4417      C4418   1.398       .  A
C4417      C4422   1.416       .  A
C4418      C4419   1.388       .  A
C4418      H4427   1.082       .  S
C4419      C4420   1.409       .  A
C4419      S4423   1.808       .  S
C4420      C4421   1.401       .  A
C4421      C4422   1.399       .  A
C4421      H4428   1.084       .  S
C4422      S4424   1.805       .  S
S4423      H4426   1.407       .  S
S4424      H4425   1.398       .  S
C4429      C4430   1.409       .  A
C4429      C4434   1.417       .  A
C4430      C4431   1.409       .  A
C4430      H4439   1.082       .  S
C4431      C4432   1.412       .  A
C4431      S4435   1.805       .  S
C4432      C4433   1.411       .  A
C4433      C4434   1.411       .  A
C4433      H4440   1.084       .  S
C4434      S4436   1.799       .  S
S4435      H4438   1.406       .  S
S4436      H4437   1.406       .  S
C4441      C4442   1.407       .  A
C4441      C4446   1.422       .  A
C4442      C4443   1.401       .  A
C4442      H4451   1.083       .  S
C4443      C4444   1.410       .  A
C4443      S4447   1.799       .  S
C4444      C4445   1.401       .  A
C4445      C4446   1.406       .  A
C4445      H4452   1.083       .  S
C4446      S4448   1.810       .  S
S4447      H4450   1.406       .  S
S4448      H4449   1.407       .  S
C4453      C4454   1.412       .  A
C4453      C4458   1.422       .  A
C4454      C4455   1.403       .  A
C4454      H4463   1.083       .  S
C4455      C4456   1.406       .  A
C4455      S4459   1.801       .  S
C4456      C4457   1.399       .  A
C4457      C4458   1.396       .  A
C4457      H4464   1.082       .  S
C4458      S4460   1.813       .  S
S4459      H4462   1.407       .  S
S4460      H4461   1.407       .  S
C4465      C4466   1.407       .  A
C4465      C4470   1.415       .  A
C4466      C4467   1.406       .  A
C4466      H4475   1.084       .  S
C4467      C4468   1.416       .  A
C4467      S4471   1.802       .  S
C4468      C4469   1.410       .  A
C4469      C4470   1.411       .  A
C4469      H4476   1.082       .  S
C4470      S4472   1.808       .  S
S4471      H4474   1.407       .  S
S4472      H4473   1.407       .  S
C4477      C4478   1.406       .  A
C4477      C4482   1.421       .  A
C4478      C4479   1.403       .  A
C4478      H4487   1.083       .  S
C4479      C4480   1.415       .  A
C4479      S4483   1.798       .  S
C4480      C4481   1.405       .  A
C4481      C4482   1.406       .  A
C4481      H4488   1.082       .  S
C4482      S4484   1.811       .  S
S4483      H4486   1.407       .  S
S4484      H4485   1.406       .  S
C4489      C4490   1.403       .  A
C4489      C4494   1.411       .  A
C4490      C4491   1.398       .  A
C4490      H4499   1.085       .  S
C4491      C4492   1.420       .  A
C4491      S4495   1.802       .  S
C4492      C4493   1.412       .  A
C4493      C4494   1.408       .  A
C4493      H4500   1.083       .  S
C4494      S4496   1.801       .  S
S4495      H4498   1.407       .  S
S4496      H4497   1.403       .  S
C4501      C4502   1.412       .  A
C4501      C4506   1.418       .  A
C4502      C4503   1.399       .  A
C4502      H4511   1.081       .  S
C4503      C4504   1.403       .  A
C4503      S4507   1.797       .  S
C4504      C4505   1.407       .  A
C4505      C4506   1.410       .  A
C4505      H4512   1.082       .  S
C4506      S4508   1.808       .  S
S4507      H4510   1.406       .  S
S4508      H4509   1.407       .  S
C4513      C4514   1.406       .  A
C4513      C4518   1.414       .  A
C4514      C4515   1.407       .  A
C4514      H4523   1.084       .  S
C4515      C4516   1.421       .  A
C4515      S4519   1.802       .  S
C4516      C4517   1.409       .  A
C4517      C4518   1.403       .  A
C4517      H4524   1.083       .  S
C4518      S4520   1.799       .  S
S4519      H4522   1.407       .  S
S4520      H4521   1.407       .  S
C4525      C4526   1.413       .  A
C4525      C4530   1.428       .  A
C4526      C4527   1.412       .  A
C4526      H4535   1.083       .  S
C4527      C4528   1.414       .  A
C4527      S4531   1.802       .  S
C4528      C4529   1.401       .  A
C4529      C4530   1.404       .  A
C4529      H4536   1.082       .  S
C4530      S4532   1.815       .  S
S4531      H4534   1.407       .  S
S4532      H4533   1.406       .  S
C4537      C4538   1.404       .  A
C4537      C4542   1.411       .  A
C4538      C4539   1.398       .  A
C4538      H4547   1.083       .  S
C4539      C4540   1.413       .  A
C4539      S4543   1.807       .  S
C4540      C4541   1.409       .  A
C4541      C4542   1.399       .  A
C4541      H4548   1.084       .  S
C4542      S4544   1.804       .  S
S4543      H4546   1.407       .  S
S4544      H4545   1.407       .  S
C4549      C4550   1.399       .  A
C4549      C4554   1.414       .  A
C4550      C4551   1.396       .  A
C4550      H4559   1.080       .  S
C4551      C4552   1.413       .  A
C4551      S4555   1.802       .  S
C4552      C4553   1.409       .  A
C4553      C4554   1.405       .  A
C4553      H4560   1.084       .  S
C4554      S4556   1.802       .  S
S4555      H4558   1.404       .  S
S4556      H4557   1.406       .  S
C4561      C4562   1.400       .  A
C4561      C4566   1.411       .  A
C4562      C4563   1.397       .  A
C4562      H4571   1.084       .  S
C4563      C4564   1.420       .  A
C4563      S4567   1.803       .  S
C4564      C4565   1.406       .  A
C4565      C4566   1.403       .  A
C4565      H4572   1.082       .  S
C4566      S4568   1.807       .  S
S4567      H4570   1.408       .  S
S4568      H4569   1.406       .  S
C4573      C4574   1.408       .  A
C4573      C4578   1.413       .  A
C4574      C4575   1.397       .  A
C4574      H4583   1.082       .  S
C4575      C4576   1.414       .  A
C4575      S4579   1.812       .  S
C4576      C4577   1.409       .  A
C4577      C4578   1.400       .  A
C4577      H4584   1.082       .  S
C4578      S4580   1.809       .  S
S4579      H4582   1.407       .  S
S4580      H4581   1.407       .  S
C4585      C4586   1.404       .  A
C4585      C4590   1.412       .  A
C4586      C4587   1.403       .  A
C4586      H4595   1.085       .  S
C4587      C4588   1.421       .  A
C4587      S4591   1.802       .  S
C4588      C4589   1.411       .  A
C4589      C4590   1.407       .  A
C4589      H4596   1.084       .  S
C4590      S4592   1.801       .  S
S4591      H4594   1.408       .  S
S4592      H4593   1.402       .  S
C4597      C4598   1.400       .  A
C4597      C4602   1.413       .  A
C4598      C4599   1.403       .  A
C4598      H4607   1.083       .  S
C4599      C4600   1.421       .  A
C4599      S4603   1.806       .  S
C4600      C4601   1.410       .  A
C4601      C4602   1.410       .  A
C4601      H4608   1.082       .  S
C4602      S4604   1.805       .  S
S4603      H4606   1.407       .  S
S4604      H4605   1.407       .  S
C4609      C4610   1.401       .  A
C4609      C4614   1.411       .  A
C4610      C4611   1.398       .  A
C4610      H4619   1.079       .  S
C4611      C4612   1.416       .  A
C4611      S4615   1.811       .  S
C4612      C4613   1.409       .  A
C4613      C4614   1.399       .  A
C4613      H4620   1.083       .  S
C4614      S4616   1.803       .  S
S4615      H4618   1.404       .  S
S4616      H4617   1.407       .  S
