geometry optimzed in LAMMPS
_audit_creation_date              2020-11-30 
_audit_creation_method            'lammps2cif' 
_symmetry_space_group_name_H-M    'P1' 
_symmetry_Int_Tables_number       1 
_symmetry_cell_setting            triclinic 
loop_ 
_symmetry_equiv_pos_as_xyz 
  x,y,z 
_cell_length_a                    31.06471234 
_cell_length_b                    30.944817016136717 
_cell_length_c                    30.97814412248439 
_cell_angle_alpha                 89.6761085513774 
_cell_angle_beta                  89.77091595610467 
_cell_angle_gamma                 89.57267877369102 
loop_ 
_atom_site_label 
_atom_site_type_symbol 
_atom_site_fract_x 
_atom_site_fract_y 
_atom_site_fract_z 
_atom_site_charge 
C1          C  0.75133662  0.76692557  0.71938206     0.79700
N2          N  0.77379159  0.73277177  0.73553123    -0.78600
C3          C  0.75933284  0.71123652  0.77090505     0.82200
N4          N  0.72115562  0.72305553  0.78930376    -0.78500
C5          C  0.69865331  0.75735930  0.77329028     0.82300
N6          N  0.71353392  0.77866388  0.73793394    -0.80200
C7          C  0.20745816  0.70138089  0.18110019     0.79700
N8          N  0.22985172  0.67620184  0.20925027    -0.78600
C9          C  0.26899915  0.68858802  0.22367331     0.82200
N10         N  0.28537412  0.72699220  0.21025662    -0.78500
C11         C  0.26346038  0.75212470  0.18182769     0.82300
N12         N  0.22404361  0.73971234  0.16793274    -0.80200
C13         C  0.73927445  0.65614600  0.24718981     0.79700
N14         N  0.72049346  0.67963585  0.27903399    -0.78600
C15         C  0.74190261  0.71306862  0.29726570     0.82200
N16         N  0.78187299  0.72346578  0.28286356    -0.78500
C17         C  0.80056547  0.70030446  0.25052989     0.82300
N18         N  0.77909335  0.66690860  0.23261189    -0.80200
C19         C  0.17851545  0.23402148  0.24091650     0.79700
N20         N  0.19870413  0.19727070  0.25393736    -0.78600
C21         C  0.23407645  0.18267603  0.23245301     0.82200
N22         N  0.24876358  0.20455437  0.19733130    -0.78500
C23         C  0.22859675  0.24152378  0.18426844     0.82300
N24         N  0.19323458  0.25589578  0.20578208    -0.80200
C25         C  0.73459532  0.29105412  0.20409407     0.79700
N26         N  0.71868424  0.26737866  0.17116288    -0.78600
C27         C  0.74252811  0.23464940  0.15392740     0.82200
N28         N  0.78220712  0.22556696  0.16999047    -0.78500
C29         C  0.79787471  0.24874804  0.20357759     0.82300
N30         N  0.77396114  0.28133661  0.22060315    -0.80200
C31         C  0.74221162  0.26386914  0.71379438     0.79700
N32         N  0.75228267  0.24655817  0.75274836    -0.78600
C33         C  0.73675911  0.20728528  0.76448976     0.82200
N34         N  0.70981958  0.18603162  0.73779366    -0.78500
C35         C  0.69877787  0.20362516  0.69903386     0.82300
N36         N  0.71470166  0.24276637  0.68734916    -0.80200
C37         C  0.22772534  0.71960975  0.67384619     0.79700
N38         N  0.20215880  0.74944827  0.69339793    -0.78600
C39         C  0.21310608  0.76571012  0.73235858     0.82200
N40         N  0.25021915  0.75239874  0.75163017    -0.78500
C41         C  0.27614538  0.72295975  0.73194064     0.82300
N42         N  0.26501076  0.70682878  0.69282048    -0.80200
O43         O  0.09061590  0.05056831  0.99547127    -0.88800
C44         C  0.96517637  0.04429572  0.95677250     0.87200
Mg45       Mg  0.12161132  0.99365669  0.01434192     1.58100
O46         O  0.97897500  0.09007743  0.05824678    -0.88600
O47         O  0.06968779  0.11265641  0.02236018    -0.75900
C48         C  0.99162090  0.89576850  0.15779639     0.92200
O49         O  0.04163817  0.97489110  0.94648611    -0.75700
O50         O  0.02548665  0.88602960  0.13593064    -0.83200
Mg51       Mg  0.05866849  0.04746535  0.93528435     1.58000
C52         C  0.91720355  0.05662840  0.16117756     0.92200
O53         O  0.08004436  0.12170205  0.92946932    -0.81500
H54         H  0.00559123  0.13437785  0.09639684    -0.06800
C55         C  0.94881884  0.96088047  0.05753860     0.87100
O56         O  0.10980162  0.01328206  0.08596562    -0.76000
O57         O  0.99845781  0.06273524  0.96865580    -0.88800
O58         O  0.91005850  0.07756623  0.12618863    -0.81600
C59         C  0.89164431  0.13898733  0.99583409     0.92300
C60         C  0.05770827  0.15586222  0.93702470     0.92100
Mg61       Mg  0.98833032  0.00187790  0.13379019     1.58000
O62         O  0.97413710  0.93283458  0.15439552    -0.81500
O63         O  0.00303826  0.07422516  0.12277180    -0.75700
O64         O  0.93049213  0.14005745  0.98314531    -0.81600
O65         O  0.11944698  0.02262404  0.89706022    -0.83300
O66         O  0.12356035  0.92304587  0.09653161    -0.81600
C67         C  0.99591667  0.10115497  0.09246224     0.86600
O68         O  0.04770059  0.98568895  0.10516210    -0.88700
O69         O  0.95782537  0.99672898  0.07275855    -0.88800
O70         O  0.97673402  0.93041894  0.05482050    -0.75900
Mg71       Mg  0.99858575  0.12212614  0.00217974     1.58000
O72         O  0.87992439  0.11400750  0.02677489    -0.83300
H73         H  0.13040730  0.08866152  0.02839951    -0.07000
O74         O  0.06279931  0.96018414  0.01297698    -0.88500
H75         H  0.03562586  0.91581068  0.97511969    -0.06800
H76         H  0.08370345  0.01987829  0.14589890    -0.07000
C77         C  0.04636424  0.94877580  0.97836441     0.86500
C78         C  0.09847002  0.08402000  0.01557672     0.87100
C79         C  0.08030020  0.00665001  0.11388547     0.87200
H80         H  0.91647589  0.95528605  0.04621344    -0.07000
O81         O  0.93374112  0.03707592  0.98246846    -0.76000
Mg82       Mg  0.04902820  0.92485374  0.07384752     1.58000
H83         H  0.96307216  0.03329918  0.92379464    -0.07000
C84         C  0.14142717  0.98902493  0.90755289     0.92200
O85         O  0.15027747  0.93218473  0.03184575    -0.83200
C86         C  0.15583604  0.93035505  0.07175067     0.92200
O87         O  0.01761580  0.15334962  0.94159348    -0.83200
Mg88       Mg  0.92043860  0.05480409  0.05382869     1.58200
O89         O  0.14072140  0.97425613  0.94583945    -0.81600
O90         O  0.92418595  0.01665032  0.16011814    -0.83300
C91         C  0.13460058  0.24674192  0.94317790     0.79700
N92         N  0.11720152  0.20772844  0.93387568    -0.78600
C93         C  0.07759497  0.19746207  0.94817620     0.82200
N94         N  0.05552384  0.22625898  0.97307023    -0.78500
C95         C  0.07291349  0.26488037  0.98433667     0.82300
N96         N  0.11231071  0.27573689  0.96812071    -0.80200
C97         C  0.93065829  0.14293871  0.24182893     0.79700
N98         N  0.95218370  0.12165633  0.27432093    -0.78600
C99         C  0.96238038  0.07884518  0.26935432     0.82200
N100        N  0.94902248  0.05799626  0.23326747    -0.78500
C101        C  0.92724574  0.07903169  0.20151046     0.82300
N102        N  0.91884459  0.12141088  0.20577674    -0.80200
C103        C  0.26169254  0.91988753  0.12347457     0.79700
N104        N  0.28543924  0.94827900  0.09963649    -0.78600
C105        C  0.26602865  0.97540611  0.07077878     0.82200
N106        N  0.22309963  0.97045109  0.06344710    -0.78500
C107        C  0.19907307  0.94192464  0.08711679     0.82300
N108        N  0.21863102  0.91701536  0.11704238    -0.80200
O109        O  0.90262617  0.45634901  0.42040831    -0.88800
C110        C  0.91419386  0.55129823  0.33459376     0.87200
Mg111      Mg  0.85420585  0.46299298  0.46950829     1.58100
O112        O  0.99830362  0.55088256  0.41046331    -0.88600
O113        O  0.97350645  0.45186989  0.41659850    -0.75900
C114        C  0.87178666  0.66781779  0.53058202     0.92200
O115        O  0.83183445  0.52032776  0.38003373    -0.75700
O116        O  0.84403105  0.63862771  0.53946975    -0.83200
Mg117      Mg  0.87999108  0.46838574  0.35589173     1.58000
C118        C  0.03740392  0.66341338  0.47080849     0.92200
O119        O  0.92669472  0.41484905  0.32414785    -0.81500
H120        H  0.04406009  0.51767415  0.44192591    -0.06800
C121        C  0.90237003  0.63427833  0.42719711     0.87100
O122        O  0.90456001  0.48520385  0.51867884    -0.76000
O123        O  0.92657685  0.51766950  0.35275605    -0.88800
O124        O  0.03698201  0.64939953  0.43167770    -0.81600
C125        C  0.01539752  0.58450104  0.29706814     0.92300
C126        C  0.96525746  0.41604744  0.30898306     0.92100
Mg127      Mg  0.95571366  0.60411699  0.50238640     1.58000
O128        O  0.90962224  0.65823001  0.51836031    -0.81500
O129        O  0.00545612  0.55325370  0.48125951    -0.75700
O130        O  0.00431011  0.54637642  0.30711303    -0.81600
O131        O  0.82327084  0.42158096  0.36038021    -0.83300
O132        O  0.80803638  0.53250727  0.55091483    -0.81600
C133        C  0.01747001  0.54029090  0.44408411     0.86600
O134        O  0.90663315  0.55601816  0.51047567    -0.88700
O135        O  0.93653532  0.61639651  0.43789220    -0.88800
O136        O  0.86624068  0.62339778  0.44316379    -0.75900
Mg137      Mg  0.99186023  0.50102212  0.36363780     1.58000
O138        O  0.02476665  0.61223437  0.32605251    -0.83300
H139        H  0.93674894  0.41342432  0.45497322    -0.07000
O140        O  0.84068580  0.52754980  0.44992670    -0.88500
H141        H  0.79593243  0.56078856  0.41714232    -0.06800
H142        H  0.94023511  0.52479810  0.55614046    -0.07000
C143        C  0.82159736  0.53704100  0.41611408     0.86500
C144        C  0.93724832  0.43909626  0.43118044     0.87100
C145        C  0.91755221  0.52247816  0.52989439     0.87200
H146        H  0.90314042  0.65919575  0.40262244    -0.07000
O147        O  0.92935036  0.58819222  0.34386133    -0.76000
Mg148      Mg  0.84167905  0.57751543  0.49648218     1.58000
H149        H  0.88905851  0.54935541  0.31066230    -0.07000
C150        C  0.79254511  0.43116386  0.38622649     0.92200
O151        O  0.80557118  0.46646620  0.52219563    -0.83200
C152        C  0.79463348  0.49317981  0.55112408     0.92200
O153        O  0.99024973  0.44714117  0.31667124    -0.83200
Mg154      Mg  0.98267431  0.61497154  0.38786935     1.58200
O155        O  0.79984909  0.44511877  0.42392854    -0.81600
O156        O  0.00848770  0.65311786  0.49793895    -0.83300
C157        C  0.69635675  0.41980177  0.31708245     0.79700
N158        N  0.66655855  0.44445593  0.33848444    -0.78600
C159        C  0.67786374  0.46421163  0.37601218     0.82200
N160        N  0.71806924  0.45748234  0.39227873    -0.78500
C161        C  0.74766994  0.43294735  0.37094273     0.82300
N162        N  0.73668588  0.41472555  0.33318237    -0.80200
C163        C  0.04010344  0.63540486  0.19133371     0.79700
N164        N  0.01291038  0.61409339  0.16443769    -0.78600
C165        C  0.98452529  0.58489345  0.18067495     0.82200
N166        N  0.98619522  0.57507535  0.22370549    -0.78500
C167        C  0.01330562  0.59642805  0.25078627     0.82300
N168        N  0.03982858  0.62669801  0.23433646    -0.80200
C169        C  0.82383712  0.77451982  0.55707248     0.79700
N170        N  0.84419321  0.80086783  0.52810407    -0.78600
C171        C  0.87134252  0.78354856  0.49804623     0.82200
N172        N  0.88031247  0.74043655  0.49991488    -0.78500
C173        C  0.86025155  0.71408873  0.52900616     0.82300
N174        N  0.83176444  0.73127099  0.55713000    -0.80200
O175        O  0.09440146  0.90733022  0.46761897    -0.88800
C176        C  0.96769038  0.91070688  0.50517916     0.87200
Mg177      Mg  0.12157802  0.96499429  0.44577026     1.58100
O178        O  0.98629316  0.85884940  0.40691835    -0.88600
O179        O  0.07695899  0.84278002  0.44516171    -0.75900
C180        C  0.98380827  0.05201183  0.30315845     0.92200
O181        O  0.04176865  0.98332994  0.51562575    -0.75700
O182        O  0.01552183  0.06514391  0.32574660    -0.83200
Mg183      Mg  0.06212934  0.91193528  0.52799940     1.58000
C184        C  0.92615719  0.88530014  0.30095422     0.92200
O185        O  0.08678536  0.83871012  0.53676494    -0.81500
H186        H  0.01917950  0.81626652  0.37101778    -0.06800
C187        C  0.94608546  0.98559259  0.40391250     0.87100
O188        O  0.11061501  0.94308719  0.37533812    -0.76000
O189        O  0.00261208  0.89416258  0.49428312    -0.88800
O190        O  0.91985686  0.86434929  0.33617419    -0.81600
C191        C  0.90055495  0.81171791  0.47282489     0.92300
C192        C  0.06333904  0.80537358  0.53160459     0.92100
Mg193      Mg  0.99033330  0.94595725  0.32839451     1.58000
O194        O  0.97088947  0.01324910  0.30592573    -0.81500
O195        O  0.01132118  0.87516217  0.34266898    -0.75700
O196        O  0.93854474  0.81451086  0.48712429    -0.81600
O197        O  0.12225688  0.93948256  0.56413139    -0.83300
O198        O  0.11503043  0.03550418  0.36218358    -0.81600
C199        C  0.00589010  0.84853262  0.37363946     0.86600
O200        O  0.04682803  0.96732239  0.35683870    -0.88700
O201        O  0.95826993  0.95053602  0.38858183    -0.88800
O202        O  0.97129559  0.01786457  0.40714436    -0.75900
Mg203      Mg  0.00581688  0.83249738  0.46602119     1.58000
O204        O  0.88921149  0.83096313  0.43789707    -0.83300
H205        H  0.13632815  0.86879380  0.43687943    -0.07000
O206        O  0.06048940  0.99571990  0.44803366    -0.88500
H207        H  0.03275863  0.04105549  0.48501720    -0.06800
H208        H  0.08480637  0.93479281  0.31584966    -0.07000
C209        C  0.04463905  0.00822494  0.48269214     0.86500
C210        C  0.10413040  0.87301281  0.44958718     0.87100
C211        C  0.08074529  0.94816972  0.34777768     0.87200
H212        H  0.91327933  0.98875081  0.41529121    -0.07000
O213        O  0.93577792  0.91324790  0.47930653    -0.76000
Mg214      Mg  0.04253312  0.02874017  0.38719580     1.58000
H215        H  0.96424164  0.92351005  0.53741515    -0.07000
C216        C  0.14376017  0.97239293  0.55143337     0.92200
O217        O  0.14528779  0.02774061  0.42536041    -0.83200
C218        C  0.14861263  0.02921613  0.38509614     0.92200
O219        O  0.02335977  0.80980213  0.53010150    -0.83200
Mg220      Mg  0.92562427  0.89086841  0.40847459     1.58200
O221        O  0.14154678  0.98604187  0.51281568    -0.81600
O222        O  0.92882336  0.92570049  0.30163675    -0.83300
C223        C  0.13341563  0.70852442  0.52630314     0.79700
N224        N  0.10812695  0.68050094  0.50371438    -0.78600
C225        C  0.06995098  0.69453781  0.48663761     0.82200
N226        N  0.05609829  0.73525059  0.49608295    -0.78500
C227        C  0.08088475  0.76293458  0.51913911     0.82300
N228        N  0.11955761  0.74956233  0.53348140    -0.80200
C229        C  0.24673556  0.02887596  0.31777509     0.79700
N230        N  0.27346425  0.00306261  0.34179284    -0.78600
C231        C  0.25778487  0.98120994  0.37682825     0.82200
N232        N  0.21669579  0.98951729  0.38981259    -0.78500
C233        C  0.19030337  0.01618595  0.36663507     0.82300
N234        N  0.20533003  0.03523738  0.33049730    -0.80200
C235        C  0.93775818  0.80326194  0.21506189     0.79700
N236        N  0.92786065  0.82244085  0.25317046    -0.78600
C237        C  0.93841403  0.86378220  0.26037658     0.82200
N238        N  0.96053943  0.88591472  0.22950155    -0.78500
C239        C  0.97243808  0.86709679  0.19156074     0.82300
N240        N  0.95943080  0.82577891  0.18355084    -0.80200
O241        O  0.55650909  0.50660272  0.90055584    -0.88800
C242        C  0.53377358  0.40837980  0.82217604     0.87200
Mg243      Mg  0.60365295  0.49937788  0.95014881     1.58100
O244        O  0.45283521  0.41957656  0.90212184    -0.88600
O245        O  0.48614320  0.51684386  0.89983945    -0.75900
C246        C  0.57291010  0.30145272  0.02255237     0.92200
O247        O  0.61951679  0.43300511  0.86517515    -0.75700
O248        O  0.60054357  0.33007768  0.03284434    -0.83200
Mg249      Mg  0.57674002  0.48741039  0.83668216     1.58000
C250        C  0.40811069  0.31203917  0.96956494     0.92200
O251        O  0.53336173  0.54260566  0.80028940    -0.81500
H252        H  0.40879238  0.45676929  0.93152058    -0.06800
C253        C  0.54331614  0.33148252  0.92067703     0.87100
O254        O  0.55127195  0.48491310  0.00071061    -0.76000
O255        O  0.52505939  0.44363935  0.83892196    -0.88800
O256        O  0.40883986  0.32391126  0.92967936    -0.81600
C257        C  0.42871179  0.38254215  0.79289263     0.92300
C258        C  0.49353781  0.54406259  0.78842022     0.92100
Mg259      Mg  0.49247219  0.36842923  0.99535137     1.58000
O260        O  0.53510158  0.31184223  0.01141005    -0.81500
O261        O  0.44528266  0.42107606  0.97285156    -0.75700
O262        O  0.44276168  0.42002687  0.80030685    -0.81600
O263        O  0.64078062  0.52590547  0.83618179    -0.83300
O264        O  0.64195385  0.43427578  0.03860687    -0.81600
C265        C  0.43410595  0.43287643  0.93501684     0.86600
O266        O  0.54409523  0.41405205  0.99846398    -0.88700
O267        O  0.51029853  0.35169377  0.93109593    -0.88800
O268        O  0.58021594  0.34069151  0.93560658    -0.75900
Mg269      Mg  0.46174742  0.46641206  0.85208332     1.58000
O270        O  0.41868524  0.35656397  0.82353154    -0.83300
H271        H  0.52772118  0.55519530  0.93203468    -0.07000
O272        O  0.61217950  0.43328731  0.93587644    -0.88500
H273        H  0.65257321  0.39300136  0.90540687    -0.06800
H274        H  0.51218194  0.45095192  0.04091742    -0.07000
C275        C  0.62929142  0.41898258  0.90261101     0.86500
C276        C  0.52398403  0.52776132  0.91097050     0.87100
C277        C  0.53534972  0.44964711  0.01482878     0.87200
H278        H  0.54083620  0.30574118  0.89740157    -0.07000
O279        O  0.51630627  0.37342140  0.83461980    -0.76000
Mg280      Mg  0.60737161  0.38766386  0.98621542     1.58000
H281        H  0.55776566  0.40711938  0.79684033    -0.07000
C282        C  0.66909911  0.51663171  0.86488860     0.92200
O283        O  0.65186053  0.49663218  0.00349565    -0.83200
C284        C  0.65884152  0.47215364  0.03569190     0.92200
O285        O  0.46638856  0.51668139  0.80150544    -0.83200
Mg286      Mg  0.46314085  0.35339254  0.88267237     1.58200
O287        O  0.65853827  0.50795023  0.90346859    -0.81600
O288        O  0.43734024  0.32267110  0.99574028    -0.83300
C289        C  0.41467904  0.31744681  0.69433956     0.79700
N290        N  0.41092259  0.33191762  0.73544247    -0.78600
C291        C  0.43084267  0.36813833  0.74781071     0.82200
N292        N  0.45610297  0.38955382  0.71894806    -0.78500
C293        C  0.46173553  0.37489524  0.67794187     0.82300
N294        N  0.43968786  0.33916763  0.66500406    -0.80200
C295        C  0.63562406  0.19932125  0.02308456     0.79700
N296        N  0.62321773  0.24071614  0.03053752    -0.78600
C297        C  0.58556207  0.25600271  0.01534480     0.82200
N298        N  0.56053054  0.22981272  0.99071658    -0.78500
C299        C  0.57294546  0.18851916  0.98127966     0.82300
N300        N  0.60998502  0.17262787  0.99938107    -0.80200
C301        C  0.77798006  0.54350290  0.82583208     0.79700
N302        N  0.80283244  0.51491446  0.84859533    -0.78600
C303        C  0.78400092  0.48310350  0.87258535     0.82200
N304        N  0.74028619  0.48354650  0.87692805    -0.78500
C305        C  0.71536911  0.51263902  0.85472951     0.82300
N306        N  0.73446419  0.54202195  0.82901374    -0.80200
O307        O  0.95949510  0.35528141  0.06520477    -0.88800
C308        C  0.00261480  0.48027647  0.05704296     0.87200
Mg309      Mg  0.93855779  0.32101424  0.01164169     1.58100
O310        O  0.89979661  0.46815862  0.10319717    -0.88600
O311        O  0.93542019  0.37690678  0.12797951    -0.75900
C312        C  0.81003006  0.45923254  0.90509396     0.92200
O313        O  0.01009911  0.39960656  0.98689011    -0.75700
O314        O  0.82682531  0.42195443  0.89809271    -0.83200
Mg315      Mg  0.02103902  0.38492414  0.05947273     1.58000
C316        C  0.80102623  0.53197911  0.06160194     0.92200
O317        O  0.02827435  0.36537679  0.13363809    -0.81500
H318        H  0.85915611  0.44116323  0.14561020    -0.06800
C319        C  0.90823653  0.49470876  0.97330453     0.87100
O320        O  0.86783021  0.33736555  0.02947775    -0.76000
O321        O  0.98882967  0.44668375  0.07399373    -0.88800
O322        O  0.83309645  0.53780176  0.08650501    -0.81600
C323        C  0.96231646  0.55479257  0.15105473     0.92300
C324        C  0.02205010  0.38954286  0.16647756     0.92100
Mg325      Mg  0.82854976  0.46105635  0.01124789     1.58000
O326        O  0.81398196  0.47761651  0.94128198    -0.81500
O327        O  0.83575847  0.44569796  0.08452298    -0.75700
O328        O  0.97583137  0.51605843  0.15174508    -0.81600
O329        O  0.05780490  0.32226965  0.03594941    -0.83300
O330        O  0.85948500  0.32165137  0.93609855    -0.81600
C331        C  0.86491012  0.45144205  0.11267949     0.86600
O332        O  0.85312797  0.39921727  0.99791295    -0.88700
O333        O  0.89094685  0.48737209  0.00880103    -0.88800
O334        O  0.90956002  0.46631421  0.94340767    -0.75900
Mg335      Mg  0.95622108  0.44800015  0.13433885     1.58000
O336        O  0.93113204  0.56645621  0.12647017    -0.83300
H337        H  0.92836429  0.31577223  0.10580793    -0.07000
O338        O  0.94420774  0.37727825  0.97305782    -0.88500
H339        H  0.98277746  0.40199800  0.92738271    -0.06800
H340        H  0.80931536  0.36699183  0.03271963    -0.07000
C341        C  0.97900010  0.39292205  0.96092155     0.86500
C342        C  0.94093666  0.34773113  0.09977861     0.87100
C343        C  0.84183948  0.36798706  0.02023920     0.87200
H344        H  0.92233055  0.52603866  0.96739490    -0.07000
O345        O  0.97833475  0.51313110  0.05077102    -0.76000
Mg346      Mg  0.88581014  0.39493404  0.93800161     1.58000
H347        H  0.03597023  0.48165619  0.04708668    -0.07000
C348        C  0.04456558  0.29687304  0.00641382     0.92200
O349        O  0.91886993  0.28655161  0.95404290    -0.83200
C350        C  0.87950323  0.28625616  0.94497287     0.92200
O351        O  0.01793114  0.42959754  0.16182762    -0.83200
Mg352      Mg  0.90651273  0.52627048  0.06671379     1.58200
O353        O  0.00544619  0.29702573  0.99494470    -0.81600
O354        O  0.80737335  0.52723812  0.02208403    -0.83300
C355        C  0.70449369  0.52934314  0.13110094     0.79700
N356        N  0.74506116  0.53643370  0.11674978    -0.78600
C357        C  0.75789549  0.52188367  0.07805310     0.82200
N358        N  0.73012654  0.49862114  0.05364856    -0.78500
C359        C  0.68966956  0.48939245  0.06791812     0.82300
N360        N  0.67607948  0.50658674  0.10635151    -0.80200
C361        C  0.02906646  0.32382372  0.26570779     0.79700
N362        N  0.03281037  0.33623629  0.22382295    -0.78600
C363        C  0.01308721  0.37232226  0.20962174     0.82200
N364        N  0.98825439  0.39576921  0.23726697    -0.78500
C365        C  0.98255176  0.38321073  0.27895799     0.82300
N366        N  0.00497866  0.34803523  0.29385379    -0.80200
C367        C  0.80821333  0.19249545  0.92651466     0.79700
N368        N  0.82348608  0.23363584  0.92602809    -0.78600
C369        C  0.85851822  0.24389474  0.94912097     0.82200
N370        N  0.87800583  0.21284182  0.97347403    -0.78500
C371        C  0.86286653  0.17182852  0.97562886     0.82300
N372        N  0.82855938  0.16109031  0.95053803    -0.80200
O373        O  0.49824370  0.04743293  0.90065759    -0.88800
C374        C  0.40538454  0.13410954  0.91472125     0.87200
Mg375      Mg  0.49106426  0.99770147  0.85373065     1.58100
O376        O  0.40589223  0.05457449  0.99648195    -0.88600
O377        O  0.50529599  0.04980704  0.97131208    -0.75900
C378        C  0.28667437  0.93859444  0.87056898     0.92200
O379        O  0.43349943  0.08824618  0.83183505    -0.75700
O380        O  0.31541169  0.92985675  0.84202828    -0.83200
Mg381      Mg  0.48644676  0.11244622  0.87770512     1.58000
C382        C  0.29294306  0.99406835  0.03586028     0.92200
O383        O  0.54067333  0.14499348  0.92410385    -0.81500
H384        H  0.43831476  0.02137477  0.04161210    -0.06800
C385        C  0.32165192  0.04136074  0.90092501     0.87100
O386        O  0.46888105  0.94891310  0.90476109    -0.76000
O387        O  0.43894750  0.11550218  0.92623246    -0.88800
O388        O  0.30761658  0.03290095  0.03631285    -0.81600
C389        C  0.37308570  0.16619387  0.01699651     0.92300
C390        C  0.53992425  0.15891401  0.96338035     0.92100
Mg391      Mg  0.35058893  0.96471044  0.95342937     1.58000
O392        O  0.29678690  0.95031713  0.90818182    -0.81500
O393        O  0.40150799  0.98379094  0.00321321    -0.75700
O394        O  0.41107273  0.15653834  0.00557925    -0.81600
O395        O  0.52961434  0.10765233  0.81643412    -0.83300
O396        O  0.42240726  0.91682341  0.80712065    -0.81600
C397        C  0.41566295  0.02033799  0.01524561     0.86600
O398        O  0.39826514  0.95677894  0.90461367    -0.88700
O399        O  0.33963165  0.02976888  0.93473422    -0.88800
O400        O  0.33182261  0.02561903  0.86441603    -0.75900
Mg401      Mg  0.45604927  0.10161607  0.99106783     1.58000
O402        O  0.34540705  0.13718974  0.02636765    -0.83300
H403        H  0.54329088  0.01331138  0.93220104    -0.07000
O404        O  0.42703662  0.01780450  0.83954302    -0.88500
H405        H  0.39274139  0.05187695  0.79653950    -0.06800
H406        H  0.42820351  0.91076964  0.93907167    -0.07000
C407        C  0.41702281  0.05225562  0.82143307     0.86500
C408        C  0.51714182  0.03644666  0.93426395     0.87100
C409        C  0.43130890  0.93722698  0.91637368     0.87200
H410        H  0.29721540  0.06635544  0.90235856    -0.07000
O411        O  0.36860564  0.12400520  0.92978524    -0.76000
Mg412      Mg  0.37721381  0.97175404  0.83980623     1.58000
H413        H  0.40728190  0.15909695  0.89026979    -0.07000
C414        C  0.51956382  0.07926909  0.78825554     0.92200
O415        O  0.48870827  0.94429455  0.80642882    -0.83200
C416        C  0.46226591  0.91553814  0.79540391     0.92200
O417        O  0.50965969  0.14939807  0.98921707    -0.83200
Mg418      Mg  0.34184644  0.07803763  0.98227328     1.58200
O419        O  0.50727316  0.04197070  0.79923785    -0.81600
O420        O  0.30180093  0.96814006  0.00564875    -0.83300
C421        C  0.54511334  0.12262797  0.67983546     0.79700
N422        N  0.51792135  0.09957758  0.65441288    -0.78600
C423        C  0.48804670  0.07290231  0.67267661     0.82200
N424        N  0.48907580  0.06671358  0.71628656    -0.78500
C425        C  0.51700154  0.08909598  0.74171876     0.82300
N426        N  0.54440730  0.11723308  0.72329428    -0.80200
C427        C  0.31625268  0.26986195  0.03409770     0.79700
N428        N  0.32624801  0.22717906  0.03511902    -0.78600
C429        C  0.36103072  0.21203697  0.01398860     0.82200
N430        N  0.38534259  0.23970099  0.98993927    -0.78500
C431        C  0.37507645  0.28244094  0.98707683     0.82300
N432        N  0.34145018  0.29792603  0.01114845    -0.80200
C433        C  0.18073080  0.91225269  0.82372399     0.79700
N434        N  0.22383311  0.91342287  0.83048338    -0.78600
C435        C  0.24030150  0.93948024  0.86074500     0.82200
N436        N  0.21325272  0.96543060  0.88404379    -0.78500
C437        C  0.17005903  0.96615038  0.87650563     0.82300
N438        N  0.15356677  0.93804519  0.84717303    -0.80200
O439        O  0.54705149  0.49046550  0.59733077    -0.88800
C440        C  0.54954077  0.44857139  0.47214807     0.87200
Mg441      Mg  0.48843853  0.50958331  0.62369958     1.58100
O442        O  0.59235330  0.55185403  0.48583330    -0.88600
O443        O  0.60924324  0.51840920  0.57924626    -0.75900
C444        C  0.39585311  0.64231013  0.48121685     0.92200
O445        O  0.47569551  0.43825090  0.54458902    -0.75700
O446        O  0.38569467  0.62444468  0.51716860    -0.83200
Mg447      Mg  0.54676383  0.42939355  0.56664288     1.58000
C448        C  0.55798676  0.65066202  0.41900238     0.92200
O449        O  0.61920257  0.42547981  0.59323739    -0.81500
H450        H  0.63317254  0.59234601  0.51438489    -0.06800
C451        C  0.46628450  0.54486674  0.44777292     0.87100
O452        O  0.50767215  0.58106429  0.61025864    -0.76000
O453        O  0.56472508  0.46222816  0.50645304    -0.88800
O454        O  0.58238391  0.61763302  0.41420642    -0.81600
C455        C  0.64602669  0.48715273  0.40340207     0.92300
C456        C  0.65361283  0.43327016  0.57177135     0.92100
Mg457      Mg  0.50135713  0.62362125  0.48623872     1.58000
O458        O  0.43331075  0.63854869  0.46538195    -0.81500
O459        O  0.57273705  0.61660808  0.50656047    -0.75700
O460        O  0.64534142  0.47595709  0.44282949    -0.81600
O461        O  0.51879047  0.39222367  0.62685683    -0.83300
O462        O  0.41699530  0.59040504  0.61693885    -0.81600
C463        C  0.60100254  0.58696240  0.50248200     0.86600
O464        O  0.48306741  0.59743318  0.54591920    -0.88700
O465        O  0.50075794  0.56143032  0.45893576    -0.88800
O466        O  0.43401466  0.54253691  0.47341351    -0.75900
Mg467      Mg  0.62321461  0.49657198  0.50926409     1.58000
O468        O  0.62205113  0.51787204  0.38922004    -0.83300
H469        H  0.58188152  0.52530637  0.63847615    -0.07000
O470        O  0.45907581  0.50515698  0.56274237    -0.88500
H471        H  0.41688209  0.46584270  0.53435696    -0.06800
H472        H  0.51461981  0.64012362  0.58208998    -0.07000
C473        C  0.44903671  0.46986390  0.54686125     0.86500
C474        C  0.57937650  0.51157112  0.60658838     0.87100
C475        C  0.50213170  0.60776207  0.57928283     0.87200
H476        H  0.46346226  0.53213818  0.41548749    -0.07000
O477        O  0.54443539  0.47293357  0.43913282    -0.76000
Mg478      Mg  0.42361908  0.56443865  0.54453326     1.58000
H479        H  0.53977209  0.41518057  0.47037991    -0.07000
C480        C  0.48445383  0.40356951  0.64698286     0.92200
O481        O  0.42498026  0.52716487  0.64732525    -0.83200
C482        C  0.42365936  0.56738321  0.65063289     0.92200
O483        O  0.65217674  0.43635788  0.53142246    -0.83200
Mg484      Mg  0.56095760  0.54447180  0.42525294     1.58200
O485        O  0.46964389  0.44175748  0.64404767    -0.81600
O486        O  0.51811676  0.64578008  0.42151673    -0.83300
C487        C  0.62608385  0.74787027  0.42354980     0.79700
N488        N  0.61284092  0.70697740  0.41576163    -0.78600
C489        C  0.57463365  0.69323036  0.43077045     0.82200
N490        N  0.54978770  0.72030547  0.45490693    -0.78500
C491        C  0.56301514  0.76084018  0.46470416     0.82300
N492        N  0.60068109  0.77545468  0.44710697    -0.80200
C493        C  0.42716351  0.63538241  0.74777942     0.79700
N494        N  0.45421455  0.61200646  0.77386795    -0.78600
C495        C  0.47555800  0.57665106  0.75799847     0.82200
N496        N  0.46560982  0.56294604  0.71752157    -0.78500
C497        C  0.43793728  0.58575866  0.69180112     0.82300
N498        N  0.41940891  0.62201128  0.70696926    -0.80200
C499        C  0.75043363  0.42627790  0.64008409     0.79700
N500        N  0.77823323  0.45184414  0.61726079    -0.78600
C501        C  0.76369656  0.47624236  0.58342767     0.82200
N502        N  0.72243509  0.47071783  0.57019283    -0.78500
C503        C  0.69487100  0.44425541  0.59195329     0.82300
N504        N  0.70891958  0.42261168  0.62707874    -0.80200
O505        O  0.39802276  0.89757141  0.44662493    -0.88800
C506        C  0.31801564  0.92048040  0.54488085     0.87200
Mg507      Mg  0.44658266  0.84888388  0.45348917     1.58100
O508        O  0.39902846  0.99988134  0.53649685    -0.88600
O509        O  0.39821627  0.96845101  0.43835456    -0.75900
C510        C  0.51491616  0.87236426  0.65382568     0.92200
O511        O  0.35959864  0.83242785  0.51726965    -0.75700
O512        O  0.52335123  0.84333671  0.62573740    -0.83200
Mg513      Mg  0.33368408  0.87812376  0.46426510     1.58000
C514        C  0.46730446  0.03967063  0.64540111     0.92200
O515        O  0.29973414  0.92335783  0.41031097    -0.81500
H516        H  0.43061296  0.04329951  0.50050036    -0.06800
C517        C  0.41330041  0.90626869  0.62271092     0.87100
O518        O  0.49725892  0.89936484  0.47069109    -0.76000
O519        O  0.33572726  0.92902241  0.50998809    -0.88800
O520        O  0.42742255  0.04127973  0.63383217    -0.81600
C521        C  0.28957571  0.02664559  0.57324608     0.92300
C522        C  0.28782943  0.96333000  0.40942057     0.92100
Mg523      Mg  0.48999569  0.95487699  0.58766594     1.58000
O524        O  0.50442010  0.91033654  0.64271264    -0.81500
O525        O  0.46978929  0.00423978  0.53594756    -0.75700
O526        O  0.29739437  0.01272331  0.53559456    -0.81600
O527        O  0.33313985  0.81574211  0.42245221    -0.83300
O528        O  0.53143821  0.80644777  0.52038268    -0.81600
C529        C  0.43272236  0.01735144  0.52391036     0.86600
O530        O  0.49267879  0.90423361  0.54151869    -0.88700
O531        O  0.42525937  0.93950948  0.60372151    -0.88800
O532        O  0.42733014  0.86885350  0.61274790    -0.75900
Mg533      Mg  0.34973890  0.99294211  0.48883294     1.58000
O534        O  0.31998083  0.03564385  0.59947912    -0.83300
H535        H  0.43088428  0.92702757  0.39937893    -0.07000
O536        O  0.43000244  0.83865114  0.51903080    -0.88500
H537        H  0.39818289  0.79687062  0.55665878    -0.06800
H538        H  0.53720451  0.93574217  0.50699704    -0.07000
C539        C  0.39635739  0.82138015  0.53169724     0.86500
C540        C  0.40925306  0.93052458  0.42657116     0.87100
C541        C  0.51056563  0.91346954  0.50678509     0.87200
H542        H  0.38933824  0.90904154  0.64795490    -0.07000
O543        O  0.32970832  0.93757014  0.58018475    -0.76000
Mg544      Mg  0.47854757  0.84070115  0.56635727     1.58000
H545        H  0.29227327  0.89716864  0.54549890    -0.07000
C546        C  0.36150387  0.78623807  0.42939177     0.92200
O547        O  0.49913488  0.79943622  0.45649168    -0.83200
C548        C  0.53007723  0.79112428  0.48184982     0.92200
O549        O  0.30001835  0.99010756  0.43752174    -0.83200
Mg550      Mg  0.37846440  0.98899065  0.60241871     1.58200
O551        O  0.39967713  0.79540425  0.44011433    -0.81600
O552        O  0.49190582  0.00892010  0.63428670    -0.83300
C553        C  0.33104294  0.67877113  0.38882771     0.79700
N554        N  0.34825732  0.65233814  0.41957740    -0.78600
C555        C  0.36581430  0.66933598  0.45583027     0.82200
N556        N  0.36865439  0.71310474  0.45903900    -0.78500
C557        C  0.35138957  0.73980447  0.42831383     0.82300
N558        N  0.33285179  0.72238657  0.39320043    -0.80200
C559        C  0.18965839  0.04159883  0.63768858     0.79700
N560        N  0.16105813  0.01691164  0.61549939    -0.78600
C561        C  0.17448430  0.99518468  0.57968072     0.82200
N562        N  0.21564294  0.00055690  0.56537108    -0.78500
C563        C  0.24414542  0.02532845  0.58737784     0.82300
N564        N  0.23103181  0.04525716  0.62376655    -0.80200
C565        C  0.53506092  0.82658213  0.76275336     0.79700
N566        N  0.50822530  0.85151032  0.78735249    -0.78600
C567        C  0.48098600  0.88066824  0.76851790     0.82200
N568        N  0.48392259  0.88700341  0.72511198    -0.78500
C569        C  0.51111487  0.86259143  0.70028312     0.82300
N570        N  0.53614522  0.83216486  0.71921462    -0.80200
C571        C  0.21257829  0.18058329  0.74075362     0.79700
N572        N  0.20383459  0.19675416  0.78042945    -0.78600
C573        C  0.22857290  0.22874882  0.79680194     0.82200
N574        N  0.26291793  0.24349024  0.77397720    -0.78500
C575        C  0.27193243  0.22683682  0.73437270     0.82300
N576        N  0.24677553  0.19550477  0.71793058    -0.80200
C577        C  0.17619930  0.07009185  0.67298535    -0.00700
C578        C  0.15758960  0.10988368  0.66124208    -0.12500
C579        C  0.16455709  0.14662732  0.68637054     0.01600
C580        C  0.18938429  0.14312275  0.72416400    -0.00700
C581        C  0.20198570  0.10221927  0.73926771    -0.12500
C582        C  0.19593731  0.06568658  0.71368015     0.01500
H583        H  0.14262480  0.11348773  0.62982786     0.14500
H584        H  0.22103998  0.09951952  0.76845421     0.14500
C585        C  0.21505474  0.02513424  0.72714393     0.27300
C586        C  0.14981112  0.18820720  0.67073765     0.36000
N587        N  0.23050951  0.99268595  0.73786166    -0.44200
N588        N  0.13799675  0.22158419  0.65836243    -0.44200
C589        C  0.38581532  0.28198497  0.68288620    -0.00700
C590        C  0.38888687  0.24512602  0.70940907    -0.12500
C591        C  0.35173971  0.22448659  0.72427906     0.01600
C592        C  0.31109608  0.23999716  0.71125218    -0.00700
C593        C  0.30840639  0.27169785  0.67888704    -0.12500
C594        C  0.34569959  0.29253849  0.66423165     0.01500
H595        H  0.41967591  0.23655320  0.72363878     0.14500
H596        H  0.27708145  0.28259423  0.66773387     0.14500
C597        C  0.34136703  0.32849449  0.63464700     0.36100
C598        C  0.35585040  0.19007935  0.75575768     0.36000
N599        N  0.33784057  0.35718570  0.61076807    -0.44200
N600        N  0.35908175  0.16249890  0.78095417    -0.44200
C601        C  0.17191842  0.25927387  0.91668771    -0.00700
C602        C  0.20667912  0.22999629  0.91566382    -0.12500
C603        C  0.22955051  0.22289234  0.87729512     0.01600
C604        C  0.21809016  0.24599737  0.83973886    -0.00700
C605        C  0.18819169  0.27999241  0.84261260    -0.12500
C606        C  0.16517492  0.28703108  0.88097130     0.01500
H607        H  0.21206933  0.20857806  0.94300027     0.14500
H608        H  0.17960258  0.29802740  0.81373598     0.14500
C609        C  0.13013870  0.31799274  0.88053085     0.36100
C610        C  0.26125643  0.18855810  0.87590915     0.36000
N611        N  0.10193447  0.34264046  0.88021009    -0.44200
N612        N  0.28666706  0.16105143  0.87473830    -0.44200
C613        C  0.21566564  0.70387014  0.63090213    -0.00700
C614        C  0.18352105  0.67251348  0.62816326    -0.12500
C615        C  0.16030994  0.66718942  0.58988095     0.01600
C616        C  0.16932874  0.69380681  0.55381613    -0.00700
C617        C  0.20575049  0.72051425  0.55492982    -0.12500
C618        C  0.22854539  0.72624382  0.59337516     0.01500
H619        H  0.17362594  0.65531791  0.65711862     0.14500
H620        H  0.21263793  0.74141650  0.52755761     0.14500
C621        C  0.26119196  0.75921687  0.59499739     0.36100
C622        C  0.12297007  0.63967327  0.59086746     0.36000
N623        N  0.28711873  0.78583595  0.59639567    -0.44200
N624        N  0.09283499  0.61791836  0.59170768    -0.44200
C625        C  0.18812012  0.80155878  0.75141107    -0.00700
C626        C  0.17503936  0.79825946  0.79462441    -0.12500
C627        C  0.16278953  0.83517777  0.81761512     0.01600
C628        C  0.16538690  0.87616243  0.79764599    -0.00700
C629        C  0.17270440  0.87865637  0.75303526    -0.12500
C630        C  0.18368020  0.84155235  0.72960684     0.01500
H631        H  0.17744965  0.76739054  0.81124177     0.14500
H632        H  0.17502963  0.91011444  0.73759649     0.14500
C633        C  0.19547671  0.84641985  0.68470363     0.36100
C634        C  0.15354141  0.83103750  0.86318780     0.36000
N635        N  0.20482974  0.85038275  0.64870576    -0.44200
N636        N  0.14604354  0.82775237  0.89967828    -0.44200
C637        C  0.39709541  0.66830504  0.76440641    -0.00700
C638        C  0.39561528  0.70747811  0.74138550    -0.12500
C639        C  0.35632680  0.72865405  0.73410438     0.01600
C640        C  0.31803811  0.71083580  0.75065147    -0.00700
C641        C  0.32036958  0.67568924  0.77928105    -0.12500
C642        C  0.35978790  0.65450686  0.78663369     0.01500
H643        H  0.42410383  0.71832350  0.72421295     0.14500
H644        H  0.29096036  0.66237337  0.79265086     0.14500
C645        C  0.35991518  0.61514314  0.81191109     0.36100
C646        C  0.35550147  0.76612544  0.70610725     0.36000
N647        N  0.35994118  0.58363782  0.83222493    -0.44200
N648        N  0.35490289  0.79620350  0.68374223    -0.44200
C649        C  0.58247999  0.14540105  0.66209412    -0.00700
C650        C  0.62068689  0.12107887  0.65912140    -0.12500
C651        C  0.66053985  0.14034402  0.66674200     0.01600
C652        C  0.66237296  0.18494835  0.67536676    -0.00700
C653        C  0.62490056  0.21026497  0.67112218    -0.12500
C654        C  0.58483399  0.19066323  0.66552450     0.01500
H655        H  0.61896354  0.08614380  0.65692806     0.14500
H656        H  0.62610503  0.24463392  0.67768805     0.14500
C657        C  0.54628804  0.21676722  0.66936797     0.36100
C658        C  0.69840574  0.11314538  0.66971791     0.36000
N659        N  0.51542432  0.23767814  0.67272877    -0.44200
N660        N  0.72864760  0.09122293  0.67224174    -0.44200
C661        C  0.74446087  0.19153717  0.80859277    -0.00700
C662        C  0.72674270  0.21558111  0.84244459    -0.12500
C663        C  0.74247691  0.21094477  0.88433614     0.01600
C664        C  0.77689884  0.18201329  0.89259946    -0.00700
C665        C  0.79022716  0.15353039  0.85984949    -0.12500
C666        C  0.77430067  0.15827878  0.81770011     0.01500
H667        H  0.70303075  0.24057119  0.83547669     0.14500
H668        H  0.81674318  0.13130253  0.86575496     0.14500
C669        C  0.79221411  0.13196719  0.78363914     0.36100
C670        C  0.72621824  0.23995470  0.91703171     0.36000
N671        N  0.80649770  0.11087397  0.75629426    -0.44200
N672        N  0.71290903  0.26371418  0.94261644    -0.44200
C673        C  0.75742788  0.30725948  0.70169560    -0.00700
C674        C  0.74404115  0.34304453  0.72612100    -0.12500
C675        C  0.74832857  0.38504366  0.70944152     0.01600
C676        C  0.76631603  0.39121710  0.66804590    -0.00700
C677        C  0.78531616  0.35592868  0.64681669    -0.12500
C678        C  0.78061229  0.31399509  0.66315188     0.01500
H679        H  0.72723427  0.33804367  0.75647634     0.14500
H680        H  0.79925378  0.36042819  0.61494697     0.14500
C681        C  0.79768323  0.27810904  0.63873362     0.36100
C682        C  0.73157513  0.42116297  0.73376890     0.36000
N683        N  0.81148350  0.24922297  0.61942215    -0.44200
N684        N  0.71865721  0.45022362  0.75343644    -0.44200
C685        C  0.72430411  0.20891512  0.11858216    -0.00700
C686        C  0.68681298  0.18531712  0.12684820    -0.12500
C687        C  0.66089685  0.17144666  0.09283468     0.01600
C688        C  0.67127534  0.18343639  0.05010270    -0.00700
C689        C  0.71219930  0.20069948  0.04167018    -0.12500
C690        C  0.73899388  0.21330464  0.07568315     0.01500
H691        H  0.67606318  0.18065727  0.15989598     0.14500
H692        H  0.72090770  0.20926529  0.00888738     0.14500
C693        C  0.77900776  0.23471842  0.06575932     0.36100
C694        C  0.62039962  0.15100465  0.10282671     0.36000
N695        N  0.81121820  0.25159893  0.05778741    -0.44200
N696        N  0.58796556  0.13451328  0.11067395    -0.44200
C697        C  0.83914058  0.23585170  0.22331913    -0.00700
C698        C  0.87664809  0.23802769  0.19826115    -0.12500
C699        C  0.91334277  0.21437755  0.21013839     0.01600
C700        C  0.91179986  0.18647870  0.24641594    -0.00700
C701        C  0.87700922  0.19027224  0.27520600    -0.12500
C702        C  0.84046455  0.21465102  0.26376326     0.01500
H703        H  0.87616738  0.25538206  0.16773210     0.14500
H704        H  0.87550218  0.16916440  0.30324246     0.14500
C705        C  0.80289222  0.21278821  0.29128183     0.36100
C706        C  0.94989497  0.21398730  0.18115003     0.36000
N707        N  0.77275816  0.21128604  0.31330922    -0.44200
N708        N  0.97910763  0.21373645  0.15784739    -0.44200
C709        C  0.70980731  0.32717514  0.22262884    -0.00700
C710        C  0.68161106  0.31879550  0.25705375    -0.12500
C711        C  0.66911604  0.35208909  0.28506252     0.01600
C712        C  0.68585322  0.39394601  0.27899986    -0.00700
C713        C  0.70878837  0.40327753  0.24102859    -0.12500
C714        C  0.72074632  0.37018963  0.21270992     0.01500
H715        H  0.67262184  0.28574128  0.26437258     0.14500
H716        H  0.72175852  0.43538555  0.23618774     0.14500
C717        C  0.74742403  0.38049262  0.17584447     0.36100
C718        C  0.64387410  0.34150085  0.32285813     0.36000
N719        N  0.76855145  0.38884441  0.14614332    -0.44200
N720        N  0.62350588  0.33307939  0.35307371    -0.44200
C721        C  0.28504272  0.28420897  0.06682832    -0.00700
C722        C  0.24448054  0.26446404  0.06603616    -0.12500
C723        C  0.22323505  0.25379871  0.10455053     0.01600
C724        C  0.24275048  0.26317433  0.14435092    -0.00700
C725        C  0.28011604  0.28821879  0.14503512    -0.12500
C726        C  0.30099800  0.29948437  0.10645019     0.01500
H727        H  0.23212911  0.25239845  0.03571256     0.14500
H728        H  0.29472181  0.29612067  0.17571262     0.14500
C729        C  0.34197103  0.32109674  0.10866155     0.36100
C730        C  0.18402859  0.22908140  0.10254468     0.36000
N731        N  0.37482304  0.33840008  0.11018782    -0.44200
N732        N  0.15262440  0.20926987  0.10100015    -0.44200
C733        C  0.25356269  0.14126779  0.24576016    -0.00700
C734        C  0.24053855  0.10354707  0.22477600    -0.12500
C735        C  0.24522933  0.06318353  0.24504987     0.01600
C736        C  0.26347545  0.06054229  0.28658312    -0.00700
C737        C  0.28239122  0.09746028  0.30428955    -0.12500
C738        C  0.27689083  0.13792092  0.28451521     0.01500
H739        H  0.22284776  0.10602717  0.19473164     0.14500
H740        H  0.29610543  0.09576871  0.33642277     0.14500
C741        C  0.29151630  0.17602306  0.30662378     0.36100
C742        C  0.22686622  0.02555894  0.22504706     0.36000
N743        N  0.30312903  0.20663866  0.32427498    -0.44200
N744        N  0.21229271  0.99532948  0.20903110    -0.44200
C745        C  0.06022516  0.29084855  0.27995833    -0.00700
C746        C  0.05992276  0.25181361  0.25706772    -0.12500
C747        C  0.09846865  0.23040818  0.24703736     0.01600
C748        C  0.13780415  0.24758354  0.26113559    -0.00700
C749        C  0.13763367  0.28298286  0.28910720    -0.12500
C750        C  0.09902254  0.30455615  0.29895480     0.01500
H751        H  0.03034552  0.24141374  0.24190555     0.14500
H752        H  0.16795318  0.29595695  0.30023129     0.14500
C753        C  0.10098199  0.34428419  0.32309355     0.36100
C754        C  0.09733785  0.19421094  0.21781825     0.36000
N755        N  0.10259204  0.37616104  0.34236051    -0.44200
N756        N  0.09649975  0.16539799  0.19418884    -0.44200
C757        C  0.69200080  0.55430147  0.16948306    -0.00700
C758        C  0.71465338  0.54430629  0.20745755    -0.12500
C759        C  0.72754997  0.57703699  0.23556602     0.01600
C760        C  0.71623810  0.62029363  0.22663397    -0.00700
C761        C  0.68850604  0.62955857  0.19216499    -0.12500
C762        C  0.67650704  0.59694931  0.16339426     0.01500
H763        H  0.72761643  0.51195335  0.21187720     0.14500
H764        H  0.67986398  0.66289854  0.18518126     0.14500
C765        C  0.65462406  0.60934252  0.12411373     0.36100
C766        C  0.75617325  0.56618465  0.27067303     0.36000
N767        N  0.63749879  0.61935325  0.09244930    -0.44200
N768        N  0.77931547  0.55762581  0.29867501    -0.44200
C769        C  0.84031278  0.71632497  0.23019107    -0.00700
C770        C  0.88042755  0.70548389  0.24789485    -0.12500
C771        C  0.91725615  0.72876345  0.23597485     0.01600
C772        C  0.91380283  0.76350285  0.20634628    -0.00700
C773        C  0.87497713  0.76963897  0.18409109    -0.12500
C774        C  0.83801308  0.74708588  0.19656112     0.01500
H775        H  0.88238747  0.68131255  0.27331889     0.14500
H776        H  0.87175827  0.79669566  0.16186907     0.14500
C777        C  0.79706013  0.75988982  0.17840897     0.36100
C778        C  0.95715721  0.72027897  0.25835872     0.36000
N779        N  0.76403121  0.77026453  0.16447832    -0.44200
N780        N  0.98917650  0.71357674  0.27624499    -0.44200
C781        C  0.72024785  0.73872998  0.33106280    -0.00700
C782        C  0.68151061  0.75960504  0.32050499    -0.12500
C783        C  0.65270905  0.77244874  0.35286955     0.01600
C784        C  0.66197728  0.76279266  0.39644883    -0.00700
C785        C  0.70338026  0.74781705  0.40717429    -0.12500
C786        C  0.73284269  0.73613490  0.37469273     0.01500
H787        H  0.67212988  0.76252496  0.28690585     0.14500
H788        H  0.71073483  0.74018423  0.44057313     0.14500
C789        C  0.77362570  0.71718428  0.38695868     0.36100
C790        C  0.61087965  0.78878845  0.34026959     0.36000
N791        N  0.80640626  0.70227314  0.39693485    -0.44200
N792        N  0.57732355  0.80170253  0.33016312    -0.44200
C793        C  0.28190622  0.88243171  0.14463800    -0.00700
C794        C  0.26873184  0.87291740  0.18692303    -0.12500
C795        C  0.26695871  0.83008120  0.20137773     0.01600
C796        C  0.27778579  0.79632925  0.17288576    -0.00700
C797        C  0.29600523  0.80601155  0.13265906    -0.12500
C798        C  0.29894339  0.84896885  0.11861754     0.01500
H799        H  0.25547753  0.89844356  0.20695371     0.14500
H800        H  0.30500889  0.77997458  0.11105106     0.14500
C801        C  0.31429114  0.85730405  0.07528866     0.36100
C802        C  0.24995412  0.82128720  0.24395592     0.36000
N803        N  0.32672603  0.86394255  0.04062821    -0.44200
N804        N  0.23649171  0.81419820  0.27813153    -0.44200
C805        C  0.16264817  0.68986006  0.17138332    -0.00700
C806        C  0.15452813  0.64779799  0.15727108    -0.12500
C807        C  0.11292137  0.63104505  0.15865517     0.01600
C808        C  0.07859274  0.65675490  0.17425782    -0.00700
C809        C  0.08609122  0.69985784  0.18543936    -0.12500
C810        C  0.12783516  0.71669329  0.18400178     0.01500
H811        H  0.18126513  0.62692431  0.14825543     0.14500
H812        H  0.05998944  0.71916183  0.19875710     0.14500
C813        C  0.13467303  0.75960909  0.20063009     0.36100
C814        C  0.10729433  0.58564322  0.14965114     0.36000
N815        N  0.14009568  0.79390773  0.21418725    -0.44200
N816        N  0.10264295  0.54921516  0.14298946    -0.44200
C817        C  0.28787677  0.66737676  0.26199983    -0.00700
C818        C  0.25994409  0.65525577  0.29575569    -0.12500
C819        C  0.27491478  0.65268687  0.33822131     0.01600
C820        C  0.31821299  0.66190538  0.34679344    -0.00700
C821        C  0.34731572  0.66682273  0.31241638    -0.12500
C822        C  0.33247574  0.66912606  0.26993419     0.01500
H823        H  0.22566030  0.65268122  0.28994041     0.14500
H824        H  0.38099464  0.67290751  0.31904770     0.14500
C825        C  0.36304853  0.67616533  0.23538620     0.36100
C826        C  0.24467650  0.64503025  0.37286601     0.36000
N827        N  0.38746748  0.68147598  0.20757692    -0.44200
N828        N  0.22056768  0.63869207  0.40071943    -0.44200
C829        C  0.76338429  0.78416572  0.67678455    -0.00700
C830        C  0.80403748  0.80273869  0.67138240    -0.12500
C831        C  0.82193251  0.80744127  0.63008384     0.01600
C832        C  0.79952836  0.79172062  0.59395462    -0.00700
C833        C  0.75697020  0.77786391  0.59902693    -0.12500
C834        C  0.73849672  0.77447756  0.64012400     0.01500
H835        H  0.82295796  0.81075419  0.69954386     0.14500
H836        H  0.73975484  0.76552932  0.57134536     0.14500
C837        C  0.69600444  0.75615699  0.64400976     0.36100
C838        C  0.86509905  0.82401690  0.62608790     0.36000
N839        N  0.66191422  0.74158200  0.64698414    -0.44200
N840        N  0.89957147  0.83765152  0.62301652    -0.44200
C841        C  0.77977101  0.66990319  0.78335554    -0.00700
C842        C  0.78270078  0.63712604  0.75225010    -0.12500
C843        C  0.79005405  0.59415457  0.76476392     0.01600
C844        C  0.79544699  0.58398285  0.80874242    -0.00700
C845        C  0.79920670  0.61760729  0.83870395    -0.12500
C846        C  0.79055815  0.66040379  0.82648411     0.01500
H847        H  0.77510799  0.64437500  0.71882302     0.14500
H848        H  0.80313656  0.60988596  0.87268493     0.14500
C849        C  0.79015927  0.69348775  0.85914252     0.36100
C850        C  0.78733793  0.56044554  0.73284652     0.36000
N851        N  0.78994606  0.71995273  0.88538702    -0.44200
N852        N  0.78529159  0.53335432  0.70734399    -0.44200
C853        C  0.65399203  0.76590427  0.78676319    -0.00700
C854        C  0.64446145  0.80487845  0.80764192    -0.12500
C855        C  0.60282101  0.82256691  0.80607575     0.01600
C856        C  0.57056076  0.80144302  0.78224552    -0.00700
C857        C  0.57900805  0.76005253  0.76587151    -0.12500
C858        C  0.62036173  0.74199197  0.76829908     0.01500
H859        H  0.67034313  0.82337073  0.82172431     0.14500
H860        H  0.55439735  0.74370235  0.74749003     0.14500
C861        C  0.62875844  0.70142203  0.74688964     0.36100
C862        C  0.59564578  0.86495483  0.82415499     0.36000
N863        N  0.63564957  0.66897188  0.72971102    -0.44200
N864        N  0.58978555  0.89890051  0.83863371    -0.44200
loop_ 
_geom_bond_atom_site_label_1 
_geom_bond_atom_site_label_2 
_geom_bond_distance 
_geom_bond_site_symmetry_2 
_ccdc_geom_bond_type 
C1            N2   1.356       .  A
C1            N6   1.353       .  A
C1          C829   1.469       .  S
N2            C3   1.356       .  A
C3            N4   1.362       .  A
C3          C841   1.474       .  S
N4            C5   1.359       .  A
C5            N6   1.357       .  A
C5          C853   1.470       .  S
C7            N8   1.357       .  A
C7           N12   1.357       .  A
C7          C805   1.472       .  S
N8            C9   1.356       .  A
C9           N10   1.359       .  A
C9          C817   1.475       .  S
N10          C11   1.354       .  A
C11          N12   1.358       .  A
C11         C796   1.466       .  S
C13          N14   1.356       .  A
C13          N18   1.358       .  A
C13         C760   1.474       .  S
N14          C15   1.361       .  A
C15          N16   1.358       .  A
C15         C781   1.475       .  S
N16          C17   1.361       .  A
C17          N18   1.357       .  A
C17         C769   1.472       .  S
C19          N20   1.355       .  A
C19          N24   1.358       .  A
C19         C748   1.469       .  S
N20          C21   1.358       .  A
C21          N22   1.357       .  A
C21         C733   1.471       .  S
N22          C23   1.361       .  A
C23          N24   1.356       .  A
C23         C724   1.470       .  S
C25          N26   1.356       .  A
C25          N30   1.358       .  A
C25         C709   1.471       .  S
N26          C27   1.361       .  A
C27          N28   1.358       .  A
C27         C685   1.475       .  S
N28          C29   1.361       .  A
C29          N30   1.356       .  A
C29         C697   1.474       .  S
C31          N32   1.354       .  A
C31          N36   1.359       .  A
C31         C673   1.473       .  S
N32          C33   1.358       .  A
C33          N34   1.355       .  A
C33         C661   1.468       .  S
N34          C35   1.360       .  A
C35          N36   1.358       .  A
C35         C652   1.474       .  S
C37          N38   1.357       .  A
C37          N42   1.356       .  A
C37         C613   1.470       .  S
N38          C39   1.356       .  A
C39          N40   1.360       .  A
C39         C625   1.474       .  S
N40          C41   1.357       .  A
C41          N42   1.360       .  A
C41         C640   1.472       .  S
O43         Mg45   2.083   1_546  S
O43         Mg51   2.119       .  S
O43          C78   1.237   1_556  S
C44          O57   1.243       .  S
C44          O81   1.278       .  A
C44          H83   1.081       .  S
Mg45         O74   2.108       .  S
Mg45         O89   2.284   1_554  S
Mg45         O85   2.162       .  S
Mg45         O56   2.331   1_565  S
O46         Mg88   2.133       .  S
O46         Mg71   2.086       .  S
O46          C67   1.237       .  S
O47          C78   1.272       .  A
O47         Mg71   2.314   1_455  S
C48         C239   1.493       .  S
C48          O50   1.284   1_655  A
C48          O62   1.269       .  A
O49          C77   1.281       .  A
O49         Mg51   2.335   1_565  S
O50         Mg82   2.378       .  S
Mg51         O57   2.183   1_455  S
Mg51         O65   2.351       .  S
Mg51         O53   2.402       .  S
C52         C101   1.468       .  S
C52          O90   1.255       .  A
C52          O58   1.279       .  A
O53          C60   1.282       .  A
H54          C67   1.081   1_455  S
C55          O69   1.242       .  S
C55          O70   1.279       .  A
C55          H80   1.081       .  S
O56          C79   1.275       .  A
O57         Mg71   2.116   1_556  S
O58         Mg88   2.373       .  S
C59         C371   1.486       .  S
C59          O72   1.281   1_556  A
C59          O64   1.268       .  A
C60          C93   1.475       .  S
C60          O87   1.256       .  A
Mg61         O68   2.102   1_645  S
Mg61         O69   2.126   1_545  S
Mg61         O62   2.272   1_545  S
Mg61         O63   2.311   1_655  S
Mg61         O90   2.196       .  S
O63          C67   1.271   1_455  A
O64         Mg71   2.262   1_556  S
O65          C84   1.281   1_545  A
O66          C86   1.281       .  A
O66         Mg82   2.422       .  S
O68         Mg82   2.123       .  S
O68          C79   1.238   1_565  S
O69         Mg88   2.210   1_565  S
O70         Mg82   2.329   1_655  S
Mg71         O87   2.187   1_654  S
O72         Mg88   2.366       .  S
H73          C78   1.081       .  S
O74         Mg82   2.216       .  S
O74          C77   1.244   1_554  S
H75          C77   1.081       .  S
H76          C79   1.081       .  S
O81         Mg88   2.315   1_556  S
C84         C437   1.486       .  S
C84          O89   1.269       .  A
O85          C86   1.250       .  A
C86         C107   1.474       .  S
C91          N92   1.359       .  A
C91          N96   1.370       .  A
C91         C601   1.471       .  S
N92          C93   1.346       .  A
C93          N94   1.361       .  A
N94          C95   1.363       .  A
C95          N96   1.365       .  A
C95         C348   1.488   1_556  S
C97          N98   1.373       .  A
C97         N102   1.357       .  A
C97         C700   1.473       .  S
N98          C99   1.369       .  A
C99         N100   1.362       .  A
C99         C180   1.489       .  S
N100        C101   1.357       .  A
C101        N102   1.342       .  A
C103        N104   1.364       .  A
C103        N108   1.357       .  A
C103        C793   1.467       .  S
N104        C105   1.362       .  A
C105        N106   1.364       .  A
C105        C382   1.482       .  S
N106        C107   1.368       .  A
C107        N108   1.346       .  A
O109       Mg111   2.145       .  S
O109       Mg117   2.151       .  S
O109        C144   1.243       .  S
C110        O123   1.240       .  S
C110        O147   1.273       .  A
C110        H149   1.081       .  S
Mg111       O140   2.124       .  S
Mg111       O155   2.279       .  S
Mg111       O151   2.222       .  S
Mg111       O122   2.299       .  S
O112       Mg154   2.152       .  S
O112       Mg137   2.135       .  S
O112        C133   1.243   1_655  S
O113        C144   1.277       .  A
O113       Mg137   2.304       .  S
C114        C173   1.474       .  S
C114        O116   1.281       .  A
C114        O128   1.267       .  A
O115        C143   1.272       .  A
O115       Mg117   2.313       .  S
O116       Mg148   2.321       .  S
Mg117       O123   2.112       .  S
Mg117       O131   2.293       .  S
Mg117       O119   2.406       .  S
C118        C225   1.488       .  S
C118        O156   1.269       .  A
C118        O124   1.290       .  A
O119        C126   1.286       .  A
H120        C133   1.081       .  S
C121        O135   1.239       .  S
C121        O136   1.272       .  A
C121        H146   1.081       .  S
O122        C145   1.275       .  A
O123       Mg137   2.117       .  S
O124       Mg154   2.426   1_455  S
C125        C167   1.480       .  S
C125        O138   1.281       .  A
C125        O130   1.268       .  A
C126        C365   1.478       .  S
C126        O153   1.265       .  A
Mg127       O134   2.152       .  S
Mg127       O135   2.119       .  S
Mg127       O128   2.251       .  S
Mg127       O129   2.294   1_655  S
Mg127       O156   2.245   1_655  S
O129        C133   1.275       .  A
O130       Mg137   2.272   1_455  S
O131        C150   1.278       .  A
O132        C152   1.289       .  A
O132       Mg148   2.420       .  S
O134       Mg148   2.165       .  S
O134        C145   1.242       .  S
O135       Mg154   2.107       .  S
O136       Mg148   2.303       .  S
Mg137       O153   2.220       .  S
O138       Mg154   2.316   1_455  S
H139        C144   1.081       .  S
O140       Mg148   2.121       .  S
O140        C143   1.239       .  S
H141        C143   1.081       .  S
H142        C145   1.081       .  S
O147       Mg154   2.311       .  S
C150        C161   1.475       .  S
C150        O155   1.269       .  A
O151        C152   1.266       .  A
C152        C501   1.481       .  S
C157        N158   1.367       .  A
C157        N162   1.358       .  A
C157        C712   1.468       .  S
N158        C159   1.365       .  A
C159        N160   1.363       .  A
C159        C455   1.480       .  S
N160        C161   1.360       .  A
C161        N162   1.348       .  A
C163        N164   1.365       .  A
C163        N168   1.358       .  A
C163        C808   1.466       .  S
N164        C165   1.360   1_455  A
C165        N166   1.367       .  A
C165        C323   1.487       .  S
N166        C167   1.367   1_655  A
C167        N168   1.349       .  A
C169        N170   1.366       .  A
C169        N174   1.359       .  A
C169        C832   1.467       .  S
N170        C171   1.363       .  A
C171        N172   1.362       .  A
C171        C191   1.481       .  S
N172        C173   1.364       .  A
C173        N174   1.348       .  A
O175       Mg177   2.088       .  S
O175       Mg183   2.124       .  S
O175        C210   1.238       .  S
C176        O189   1.242   1_655  S
C176        O213   1.279       .  A
C176        H215   1.081       .  S
Mg177       O206   2.117       .  S
Mg177       O221   2.270       .  S
Mg177       O217   2.172   1_565  S
Mg177       O188   2.316       .  S
O178       Mg220   2.123       .  S
O178       Mg203   2.090   1_655  S
O178        C199   1.237   1_655  S
O179        C210   1.273       .  A
O179       Mg203   2.324       .  S
C180        O182   1.281   1_655  A
C180        O194   1.270       .  A
O181        C209   1.278   1_565  A
O181       Mg183   2.324       .  S
O182       Mg214   2.360       .  S
Mg183       O189   2.202       .  S
Mg183       O197   2.349       .  S
Mg183       O185   2.401       .  S
C184        C237   1.473       .  S
C184        O222   1.254       .  A
C184        O190   1.281       .  A
O185        C192   1.278       .  A
H186        C199   1.081       .  S
C187        O201   1.243       .  S
C187        O202   1.278   1_565  A
C187        H212   1.081       .  S
O188        C211   1.272       .  A
O189       Mg203   2.105       .  S
O190       Mg220   2.398       .  S
C191        O204   1.281       .  A
C191        O196   1.266       .  A
C192        C227   1.471       .  S
C192        O219   1.249       .  A
Mg193       O200   2.081   1_655  S
Mg193       O201   2.115       .  S
Mg193       O194   2.270   1_565  S
Mg193       O195   2.322   1_655  S
Mg193       O222   2.183       .  S
O195        C199   1.273       .  A
O196       Mg203   2.260   1_655  S
O197        C216   1.281       .  A
O198        C218   1.277       .  A
O198       Mg214   2.389       .  S
O200       Mg214   2.128   1_565  S
O200        C211   1.237       .  S
O201       Mg220   2.197       .  S
O202       Mg214   2.322   1_655  S
Mg203       O219   2.172       .  S
O204       Mg220   2.356       .  S
H205        C210   1.081       .  S
O206       Mg214   2.210   1_565  S
O206        C209   1.242   1_565  S
H207        C209   1.081       .  S
H208        C211   1.081       .  S
O213       Mg220   2.328       .  S
C216        C561   1.482       .  S
C216        O221   1.268       .  A
O217        C218   1.252       .  A
C218        C233   1.468       .  S
C223        N224   1.371       .  A
C223        N228   1.357       .  A
C223        C616   1.474       .  S
N224        C225   1.367       .  A
C225        N226   1.361       .  A
N226        C227   1.363       .  A
C227        N228   1.344       .  A
C229        N230   1.367       .  A
C229        N234   1.357       .  A
C229        C736   1.469       .  S
N230        C231   1.366   1_545  A
C231        N232   1.360       .  A
C231        C522   1.480       .  S
N232        C233   1.363   1_565  A
C233        N234   1.346       .  A
C235        N236   1.357       .  A
C235        N240   1.373       .  A
C235        C772   1.469       .  S
N236        C237   1.343       .  A
C237        N238   1.360       .  A
N238        C239   1.363       .  A
C239        N240   1.368       .  A
O241       Mg243   2.136       .  S
O241       Mg249   2.159       .  S
O241        C276   1.242       .  S
C242        O255   1.238       .  S
C242        O279   1.271       .  A
C242        H281   1.081       .  S
Mg243       O272   2.109       .  S
Mg243       O287   2.247       .  S
Mg243       O283   2.235   1_556  S
Mg243       O254   2.299   1_556  S
O244       Mg286   2.159       .  S
O244       Mg269   2.135       .  S
O244        C265   1.242       .  S
O245        C276   1.275       .  A
O245       Mg269   2.292       .  S
C246        C297   1.475       .  S
C246        O248   1.281       .  A
C246        O260   1.264       .  A
O247        C275   1.273       .  A
O247       Mg249   2.311       .  S
O248       Mg280   2.298   1_554  S
Mg249       O255   2.109       .  S
Mg249       O263   2.326       .  S
Mg249       O251   2.441       .  S
C250        C431   1.480       .  S
C250        O288   1.266       .  A
C250        O256   1.287       .  A
O251        C258   1.292       .  A
H252        C265   1.081       .  S
C253        O267   1.240       .  S
C253        O268   1.273       .  A
C253        H278   1.081       .  S
O254        C277   1.276       .  A
O255       Mg269   2.123       .  S
O256       Mg286   2.406       .  S
C257        C291   1.469       .  S
C257        O270   1.279       .  A
C257        O262   1.265       .  A
C258        C495   1.484       .  S
C258        O285   1.264       .  A
Mg259       O266   2.147       .  S
Mg259       O267   2.130       .  S
Mg259       O260   2.242   1_556  S
Mg259       O261   2.291       .  S
Mg259       O288   2.230       .  S
O261        C265   1.274       .  A
O262       Mg269   2.242       .  S
O263        C282   1.283       .  A
O264        C284   1.290       .  A
O264       Mg280   2.436   1_554  S
O266       Mg280   2.156       .  S
O266        C277   1.243   1_556  S
O267       Mg286   2.101       .  S
O268       Mg280   2.310       .  S
Mg269       O285   2.207       .  S
O270       Mg286   2.300       .  S
H271        C276   1.081       .  S
O272       Mg280   2.103       .  S
O272        C275   1.240       .  S
H273        C275   1.081       .  S
H274        C277   1.081       .  S
O279       Mg286   2.305       .  S
C282        C305   1.475       .  S
C282        O287   1.266       .  A
O283        C284   1.267       .  A
C284        C359   1.490       .  S
C289        N290   1.356       .  A
C289        N294   1.370       .  A
C289        C589   1.468       .  S
N290        C291   1.343       .  A
C291        N292   1.360       .  A
N292        C293   1.361       .  A
C293        N294   1.368       .  A
C293        C480   1.483       .  S
C295        N296   1.356       .  A
C295        N300   1.370   1_554  A
C295        C688   1.471       .  S
N296        C297   1.344       .  A
C297        N298   1.366   1_554  A
N298        C299   1.365       .  A
C299        N300   1.369       .  A
C299        C390   1.491       .  S
C301        N302   1.365       .  A
C301        N306   1.356       .  A
C301        C844   1.464       .  S
N302        C303   1.364       .  A
C303        N304   1.364       .  A
C303        C312   1.484       .  S
N304        C305   1.367       .  A
C305        N306   1.345       .  A
O307       Mg309   2.083       .  S
O307       Mg315   2.133   1_655  S
O307        C342   1.236       .  S
C308        O321   1.240   1_455  S
C308        O345   1.276   1_455  A
C308        H347   1.081       .  S
Mg309       O338   2.114   1_554  S
Mg309       O353   2.260   1_654  S
Mg309       O349   2.176   1_554  S
Mg309       O320   2.316       .  S
O310       Mg352   2.130       .  S
O310       Mg335   2.093       .  S
O310        C331   1.238       .  S
O311        C342   1.270       .  A
O311       Mg335   2.307       .  S
C312        O314   1.282       .  A
C312        O326   1.267       .  A
O313        C341   1.278   1_455  A
O313       Mg315   2.317   1_556  S
O314       Mg346   2.360       .  S
Mg315       O321   2.199   1_455  S
Mg315       O329   2.360       .  S
Mg315       O317   2.384       .  S
C316        C357   1.467       .  S
C316        O354   1.248       .  A
C316        O322   1.277       .  A
O317        C324   1.279       .  A
H318        C331   1.081       .  S
C319        O333   1.242   1_556  S
C319        O334   1.281       .  A
C319        H344   1.081       .  S
O320        C343   1.272       .  A
O321       Mg335   2.123       .  S
O322       Mg352   2.384       .  S
C323        O336   1.283       .  A
C323        O328   1.267       .  A
C324        C363   1.463       .  S
C324        O351   1.253       .  A
Mg325       O332   2.098   1_554  S
Mg325       O333   2.109       .  S
Mg325       O326   2.271   1_554  S
Mg325       O327   2.328       .  S
Mg325       O354   2.174       .  S
O327        C331   1.274       .  A
O328       Mg335   2.265       .  S
O329        C348   1.281       .  A
O330        C350   1.284       .  A
O330       Mg346   2.418       .  S
O332       Mg346   2.116       .  S
O332        C343   1.237   1_556  S
O333       Mg352   2.223       .  S
O334       Mg346   2.341       .  S
Mg335       O351   2.172   1_655  S
O336       Mg352   2.368       .  S
H337        C342   1.081       .  S
O338       Mg346   2.182       .  S
O338        C341   1.244       .  S
H339        C341   1.081       .  S
H340        C343   1.081       .  S
O345       Mg352   2.317       .  S
C348        O353   1.267   1_554  A
O349        C350   1.256       .  A
C350        C369   1.473       .  S
C355        N356   1.354       .  A
C355        N360   1.372       .  A
C355        C757   1.471       .  S
N356        C357   1.341       .  A
C357        N358   1.362       .  A
N358        C359   1.362       .  A
C359        N360   1.371       .  A
C361        N362   1.356       .  A
C361        N366   1.369       .  A
C361        C745   1.469       .  S
N362        C363   1.342       .  A
C363        N364   1.360   1_455  A
N364        C365   1.358       .  A
C365        N366   1.367   1_655  A
C367        N368   1.362       .  A
C367        N372   1.373       .  A
C367        C664   1.474       .  S
N368        C369   1.346       .  A
C369        N370   1.359       .  A
N370        C371   1.358       .  A
C371        N372   1.366       .  A
O373       Mg375   2.136   1_545  S
O373       Mg381   2.159       .  S
O373        C408   1.242       .  S
C374        O387   1.240       .  S
C374        O411   1.273       .  A
C374        H413   1.081       .  S
Mg375       O404   2.126   1_565  S
Mg375       O419   2.226   1_565  S
Mg375       O415   2.217       .  S
Mg375       O386   2.288       .  S
O376       Mg418   2.159       .  S
O376       Mg401   2.146       .  S
O376        C397   1.242   1_556  S
O377        C408   1.274       .  A
O377       Mg401   2.292       .  S
C378        C435   1.474       .  S
C378        O380   1.282       .  A
C378        O392   1.264       .  A
O379        C407   1.273       .  A
O379       Mg381   2.310       .  S
O380       Mg412   2.325       .  S
Mg381       O387   2.104       .  S
Mg381       O395   2.324       .  S
Mg381       O383   2.445       .  S
C382        O420   1.264       .  A
C382        O388   1.289   1_565  A
O383        C390   1.293       .  A
H384        C397   1.081       .  S
C385        O399   1.239       .  S
C385        O400   1.272       .  A
C385        H410   1.081       .  S
O386        C409   1.274       .  A
O387       Mg401   2.120       .  S
O388       Mg418   2.422   1_554  S
C389        C429   1.467       .  S
C389        O402   1.279       .  A
C389        O394   1.265       .  A
C390        O417   1.268       .  A
Mg391       O398   2.126       .  S
Mg391       O399   2.117   1_565  S
Mg391       O392   2.235       .  S
Mg391       O393   2.296   1_556  S
Mg391       O420   2.215   1_556  S
O393        C397   1.275   1_565  A
O394       Mg401   2.239   1_554  S
O395        C414   1.283       .  A
O396        C416   1.289       .  A
O396       Mg412   2.420       .  S
O398       Mg412   2.161       .  S
O398        C409   1.242       .  S
O399       Mg418   2.105       .  S
O400       Mg412   2.306   1_545  S
Mg401       O417   2.236       .  S
O402       Mg418   2.294   1_554  S
H403        C408   1.081       .  S
O404       Mg412   2.112   1_545  S
O404        C407   1.240       .  S
H405        C407   1.081       .  S
H406        C409   1.081       .  S
O411       Mg418   2.311       .  S
C414        C425   1.474       .  S
C414        O419   1.263       .  A
O415        C416   1.265       .  A
C416        C567   1.481       .  S
C421        N422   1.365       .  A
C421        N426   1.356       .  A
C421        C649   1.466       .  S
N422        C423   1.366       .  A
C423        N424   1.364       .  A
C423        C514   1.487       .  S
N424        C425   1.369       .  A
C425        N426   1.345       .  A
C427        N428   1.355       .  A
C427        N432   1.368       .  A
C427        C721   1.468       .  S
N428        C429   1.344       .  A
C429        N430   1.362   1_554  A
N430        C431   1.361       .  A
C431        N432   1.366   1_556  A
C433        N434   1.357       .  A
C433        N438   1.367       .  A
C433        C628   1.466       .  S
N434        C435   1.345       .  A
C435        N436   1.365       .  A
N436        C437   1.363       .  A
C437        N438   1.365       .  A
O439       Mg441   2.076       .  S
O439       Mg447   2.120       .  S
O439        C474   1.237       .  S
C440        O453   1.242       .  S
C440        O477   1.277       .  A
C440        H479   1.081       .  S
Mg441       O470   2.106       .  S
Mg441       O485   2.268       .  S
Mg441       O481   2.167       .  S
Mg441       O452   2.330       .  S
O442       Mg484   2.133       .  S
O442       Mg467   2.083       .  S
O442        C463   1.237       .  S
O443        C474   1.272       .  A
O443       Mg467   2.313       .  S
C444        C555   1.475       .  S
C444        O446   1.280       .  A
C444        O458   1.266       .  A
O445        C473   1.279       .  A
O445       Mg447   2.327       .  S
O446       Mg478   2.348       .  S
Mg447       O453   2.191       .  S
Mg447       O461   2.353       .  S
Mg447       O449   2.401       .  S
C448        C489   1.467       .  S
C448        O486   1.251       .  A
C448        O454   1.277       .  A
O449        C456   1.280       .  A
H450        C463   1.081       .  S
C451        O465   1.242       .  S
C451        O466   1.279       .  A
C451        H476   1.081       .  S
O452        C475   1.274       .  A
O453       Mg467   2.114       .  S
O454       Mg484   2.387       .  S
C455        O468   1.280       .  A
C455        O460   1.268       .  A
C456        C503   1.471       .  S
C456        O483   1.254       .  A
Mg457       O464   2.093       .  S
Mg457       O465   2.107       .  S
Mg457       O458   2.257       .  S
Mg457       O459   2.316       .  S
Mg457       O486   2.178       .  S
O459        C463   1.272       .  A
O460       Mg467   2.261       .  S
O461        C480   1.281       .  A
O462        C482   1.277       .  A
O462       Mg478   2.394       .  S
O464       Mg478   2.118       .  S
O464        C475   1.238       .  S
O465       Mg484   2.199       .  S
O466       Mg478   2.329       .  S
Mg467       O483   2.172       .  S
O468       Mg484   2.344       .  S
H469        C474   1.081       .  S
O470       Mg478   2.204       .  S
O470        C473   1.243       .  S
H471        C473   1.081       .  S
H472        C475   1.081       .  S
O477       Mg484   2.314       .  S
C480        O485   1.268       .  A
O481        C482   1.250       .  A
C482        C497   1.471       .  S
C487        N488   1.357       .  A
C487        N492   1.370       .  A
C487        C784   1.469       .  S
N488        C489   1.344       .  A
C489        N490   1.360       .  A
N490        C491   1.359       .  A
C491        N492   1.368       .  A
C491        C548   1.481       .  S
C493        N494   1.368       .  A
C493        N498   1.355       .  A
C493        C637   1.471       .  S
N494        C495   1.368       .  A
C495        N496   1.363       .  A
N496        C497   1.365       .  A
C497        N498   1.343       .  A
C499        N500   1.368       .  A
C499        N504   1.358       .  A
C499        C676   1.468       .  S
N500        C501   1.365       .  A
C501        N502   1.360       .  A
N502        C503   1.363       .  A
C503        N504   1.347       .  A
O505       Mg507   2.134       .  S
O505       Mg513   2.159       .  S
O505        C540   1.243       .  S
C506        O519   1.239       .  S
C506        O543   1.273       .  A
C506        H545   1.081       .  S
Mg507       O536   2.115       .  S
Mg507       O551   2.254       .  S
Mg507       O547   2.231       .  S
Mg507       O518   2.292       .  S
O508       Mg550   2.163       .  S
O508       Mg533   2.144       .  S
O508        C529   1.242   1_565  S
O509        C540   1.275       .  A
O509       Mg533   2.295       .  S
C510        C569   1.473       .  S
C510        O512   1.279       .  A
C510        O524   1.263       .  A
O511        C539   1.272       .  A
O511       Mg513   2.305       .  S
O512       Mg544   2.313       .  S
Mg513       O519   2.126       .  S
Mg513       O527   2.331       .  S
Mg513       O515   2.415       .  S
C514        O552   1.264       .  A
C514        O520   1.292       .  A
O515        C522   1.289       .  A
H516        C529   1.081       .  S
C517        O531   1.241       .  S
C517        O532   1.273       .  A
C517        H542   1.081       .  S
O518        C541   1.274       .  A
O519       Mg533   2.128       .  S
O520       Mg550   2.438   1_545  S
C521        C563   1.477       .  S
C521        O534   1.282       .  A
C521        O526   1.268       .  A
C522        O549   1.266       .  A
Mg523       O530   2.128       .  S
Mg523       O531   2.126       .  S
Mg523       O524   2.231       .  S
Mg523       O525   2.294   1_565  S
Mg523       O552   2.217   1_565  S
O525        C529   1.274       .  A
O526       Mg533   2.257   1_545  S
O527        C546   1.282       .  A
O528        C548   1.288       .  A
O528       Mg544   2.413       .  S
O530       Mg544   2.155       .  S
O530        C541   1.242       .  S
O531       Mg550   2.104       .  S
O532       Mg544   2.309       .  S
Mg533       O549   2.223       .  S
O534       Mg550   2.314   1_545  S
H535        C540   1.081       .  S
O536       Mg544   2.109       .  S
O536        C539   1.239       .  S
H537        C539   1.081       .  S
H538        C541   1.081       .  S
O543       Mg550   2.315       .  S
C546        C557   1.474       .  S
C546        O551   1.267       .  A
O547        C548   1.268       .  A
C553        N554   1.361       .  A
C553        N558   1.359       .  A
C553        C820   1.463       .  S
N554        C555   1.361       .  A
C555        N556   1.362       .  A
N556        C557   1.366       .  A
C557        N558   1.350       .  A
C559        N560   1.366       .  A
C559        N564   1.359       .  A
C559        C577   1.466       .  S
N560        C561   1.363   1_545  A
C561        N562   1.363   1_565  A
N562        C563   1.363       .  A
C563        N564   1.348       .  A
C565        N566   1.365       .  A
C565        N570   1.359       .  A
C565        C856   1.474       .  S
N566        C567   1.363       .  A
C567        N568   1.361       .  A
N568        C569   1.367       .  A
C569        N570   1.350       .  A
C571        N572   1.355       .  A
C571        N576   1.356       .  A
C571        C580   1.466       .  S
N572        C573   1.359       .  A
C573        N574   1.358       .  A
C573        C604   1.470       .  S
N574        C575   1.361       .  A
C575        N576   1.353       .  A
C575        C592   1.468       .  S
C577        C578   1.403       .  A
C577        C582   1.410       .  A
C578        H583   1.085       .  S
C578        C579   1.400       .  A
C579        C580   1.408       .  A
C579        C586   1.444       .  S
C580        C581   1.401       .  A
C581        H584   1.085       .  S
C581        C582   1.399       .  A
C582        C585   1.444       .  S
C585        N587   1.157   1_545  T
C586        N588   1.157       .  T
C589        C590   1.405       .  A
C589        C594   1.411       .  A
C590        H595   1.085       .  S
C590        C591   1.398       .  A
C591        C592   1.407       .  A
C591        C598   1.445       .  S
C592        C593   1.401       .  A
C593        H596   1.085       .  S
C593        C594   1.403       .  A
C594        C597   1.443       .  S
C597        N599   1.157       .  T
C598        N600   1.157       .  T
C601        C602   1.405       .  A
C601        C606   1.412       .  A
C602        H607   1.085       .  S
C602        C603   1.400       .  A
C603        C604   1.408       .  A
C603        C610   1.444       .  S
C604        C605   1.401       .  A
C605        H608   1.085       .  S
C605        C606   1.402       .  A
C606        C609   1.445       .  S
C609        N611   1.157       .  T
C610        N612   1.157       .  T
C613        C614   1.401       .  A
C613        C618   1.408       .  A
C614        H619   1.085       .  S
C614        C615   1.402       .  A
C615        C616   1.413       .  A
C615        C622   1.444       .  S
C616        C617   1.407       .  A
C617        H620   1.085       .  S
C617        C618   1.401       .  A
C618        C621   1.445       .  S
C621        N623   1.157       .  T
C622        N624   1.157       .  T
C625        C626   1.401       .  A
C625        C630   1.413       .  A
C626        H631   1.085       .  S
C626        C627   1.399       .  A
C627        C628   1.411       .  A
C627        C634   1.445       .  S
C628        C629   1.401       .  A
C629        H632   1.085       .  S
C629        C630   1.401       .  A
C630        C633   1.444       .  S
C633        N635   1.157       .  T
C634        N636   1.157       .  T
C637        C638   1.403       .  A
C637        C642   1.413       .  A
C638        H643   1.085       .  S
C638        C639   1.399       .  A
C639        C640   1.408       .  A
C639        C646   1.444       .  S
C640        C641   1.401       .  A
C641        H644   1.085       .  S
C641        C642   1.403       .  A
C642        C645   1.444       .  S
C645        N647   1.157       .  T
C646        N648   1.157       .  T
C649        C650   1.404       .  A
C649        C654   1.408       .  A
C650        H655   1.085       .  S
C650        C651   1.400       .  A
C651        C652   1.409       .  A
C651        C658   1.444       .  S
C652        C653   1.404       .  A
C653        H656   1.085       .  S
C653        C654   1.400       .  A
C654        C657   1.444       .  S
C657        N659   1.157       .  T
C658        N660   1.157       .  T
C661        C662   1.398       .  A
C661        C666   1.408       .  A
C662        H667   1.085       .  S
C662        C663   1.395       .  A
C663        C664   1.413       .  A
C663        C670   1.444       .  S
C664        C665   1.407       .  A
C665        H668   1.085       .  S
C665        C666   1.405       .  A
C666        C669   1.444       .  S
C669        N671   1.157       .  T
C670        N672   1.157       .  T
C673        C674   1.404       .  A
C673        C678   1.407       .  A
C674        H679   1.085       .  S
C674        C675   1.403       .  A
C675        C676   1.409       .  A
C675        C682   1.444       .  S
C676        C677   1.403       .  A
C677        H680   1.085       .  S
C677        C678   1.399       .  A
C678        C681   1.444       .  S
C681        N683   1.157       .  T
C682        N684   1.157       .  T
C685        C686   1.401       .  A
C685        C690   1.410       .  A
C686        H691   1.085       .  S
C686        C687   1.400       .  A
C687        C688   1.410       .  A
C687        C694   1.444       .  S
C688        C689   1.406       .  A
C689        H692   1.082       .  S
C689        C690   1.404       .  A
C690        C693   1.444       .  S
C693        N695   1.157       .  T
C694        N696   1.157       .  T
C697        C698   1.399       .  A
C697        C702   1.412       .  A
C698        H703   1.085       .  S
C698        C699   1.399       .  A
C699        C700   1.414       .  A
C699        C706   1.445       .  S
C700        C701   1.403       .  A
C701        H704   1.085       .  S
C701        C702   1.404       .  A
C702        C705   1.444       .  S
C705        N707   1.157       .  T
C706        N708   1.157       .  T
C709        C710   1.402       .  A
C709        C714   1.408       .  A
C710        H715   1.085       .  S
C710        C711   1.402       .  A
C711        C712   1.411       .  A
C711        C718   1.444       .  S
C712        C713   1.403       .  A
C713        H716   1.084       .  S
C713        C714   1.399       .  A
C714        C717   1.444       .  S
C717        N719   1.157       .  T
C718        N720   1.157       .  T
C721        C722   1.405       .  A
C721        C726   1.411       .  A
C722        H727   1.085       .  S
C722        C723   1.400       .  A
C723        C724   1.409       .  A
C723        C730   1.445       .  S
C724        C725   1.401       .  A
C725        H728   1.085       .  S
C725        C726   1.401       .  A
C726        C729   1.444       .  S
C729        N731   1.157       .  T
C730        N732   1.157       .  T
C733        C734   1.402       .  A
C733        C738   1.408       .  A
C734        H739   1.085       .  S
C734        C735   1.402       .  A
C735        C736   1.410       .  A
C735        C742   1.444       .  S
C736        C737   1.404       .  A
C737        H740   1.085       .  S
C737        C738   1.400       .  A
C738        C741   1.444       .  S
C741        N743   1.157       .  T
C742        N744   1.157   1_545  T
C745        C746   1.404       .  A
C745        C750   1.412       .  A
C746        H751   1.085       .  S
C746        C747   1.399       .  A
C747        C748   1.408       .  A
C747        C754   1.445       .  S
C748        C749   1.401       .  A
C749        H752   1.085       .  S
C749        C750   1.402       .  A
C750        C753   1.444       .  S
C753        N755   1.157       .  T
C754        N756   1.157       .  T
C757        C758   1.405       .  A
C757        C762   1.413       .  A
C758        H763   1.084       .  S
C758        C759   1.401       .  A
C759        C760   1.408       .  A
C759        C766   1.444       .  S
C760        C761   1.402       .  A
C761        H764   1.085       .  S
C761        C762   1.404       .  A
C762        C765   1.445       .  S
C765        N767   1.157       .  T
C766        N768   1.157       .  T
C769        C770   1.401       .  A
C769        C774   1.409       .  A
C770        H775   1.085       .  S
C770        C771   1.404       .  A
C771        C772   1.413       .  A
C771        C778   1.444       .  S
C772        C773   1.403       .  A
C773        H776   1.085       .  S
C773        C774   1.400       .  A
C774        C777   1.445       .  S
C777        N779   1.157       .  T
C778        N780   1.157       .  T
C781        C782   1.401       .  A
C781        C786   1.410       .  A
C782        H787   1.085       .  S
C782        C783   1.398       .  A
C783        C784   1.411       .  A
C783        C790   1.445       .  S
C784        C785   1.404       .  A
C785        H788   1.085       .  S
C785        C786   1.405       .  A
C786        C789   1.443       .  S
C789        N791   1.157       .  T
C790        N792   1.157       .  T
C793        C794   1.401       .  A
C793        C798   1.414       .  A
C794        H799   1.085       .  S
C794        C795   1.398       .  A
C795        C796   1.409       .  A
C795        C802   1.444       .  S
C796        C797   1.398       .  A
C797        H800   1.085       .  S
C797        C798   1.400       .  A
C798        C801   1.445       .  S
C801        N803   1.157       .  T
C802        N804   1.157       .  T
C805        C806   1.400       .  A
C805        C810   1.414       .  A
C806        H811   1.085       .  S
C806        C807   1.397       .  A
C807        C808   1.411       .  A
C807        C814   1.446       .  S
C808        C809   1.401       .  A
C809        H812   1.085       .  S
C809        C810   1.402       .  A
C810        C813   1.445       .  S
C813        N815   1.157       .  T
C814        N816   1.157       .  T
C817        C818   1.407       .  A
C817        C822   1.410       .  A
C818        H823   1.084       .  S
C818        C819   1.399       .  A
C819        C820   1.404       .  A
C819        C826   1.443       .  S
C820        C821   1.403       .  A
C821        H824   1.085       .  S
C821        C822   1.397       .  A
C822        C825   1.445       .  S
C825        N827   1.157       .  T
C826        N828   1.157       .  T
C829        C830   1.400       .  A
C829        C834   1.411       .  A
C830        H835   1.085       .  S
C830        C831   1.400       .  A
C831        C832   1.411       .  A
C831        C838   1.444       .  S
C832        C833   1.401       .  A
C833        H836   1.085       .  S
C833        C834   1.398       .  A
C834        C837   1.445       .  S
C837        N839   1.157       .  T
C838        N840   1.157       .  T
C841        C842   1.405       .  A
C841        C846   1.408       .  A
C842        H847   1.085       .  S
C842        C843   1.400       .  A
C843        C844   1.407       .  A
C843        C850   1.444       .  S
C844        C845   1.404       .  A
C845        H848   1.085       .  S
C845        C846   1.400       .  A
C846        C849   1.443       .  S
C849        N851   1.157       .  T
C850        N852   1.157       .  T
C853        C854   1.401       .  A
C853        C858   1.410       .  A
C854        H859   1.085       .  S
C854        C855   1.402       .  A
C855        C856   1.413       .  A
C855        C862   1.445       .  S
C856        C857   1.403       .  A
C857        H860   1.085       .  S
C857        C858   1.399       .  A
C858        C861   1.445       .  S
C861        N863   1.157       .  T
C862        N864   1.157       .  T
