geometry optimzed in LAMMPS
_audit_creation_date              2020-11-30 
_audit_creation_method            'lammps2cif' 
_symmetry_space_group_name_H-M    'P1' 
_symmetry_Int_Tables_number       1 
_symmetry_cell_setting            triclinic 
loop_ 
_symmetry_equiv_pos_as_xyz 
  x,y,z 
_cell_length_a                    74.98249217451877 
_cell_length_b                    75.20816725896852 
_cell_length_c                    74.46779587837605 
_cell_angle_alpha                 89.56449026713388 
_cell_angle_beta                  90.18793460806191 
_cell_angle_gamma                 90.02929684830819 
loop_ 
_atom_site_label 
_atom_site_type_symbol 
_atom_site_fract_x 
_atom_site_fract_y 
_atom_site_fract_z 
_atom_site_charge 
O1          O  0.63446268  0.56200930  0.04206296    -0.56830
C2          C  0.59555349  0.53736852  0.07057917     0.75800
O3          O  0.60266908  0.59351861  0.08285376    -0.57990
C4          C  0.64126998  0.57745342  0.04236979     0.75770
C5          C  0.58603404  0.58345354  0.02756897     0.78170
Cd6        Cd  0.60748017  0.57157281  0.05799679     1.37470
O7          O  0.61082438  0.53954983  0.06376121    -0.56820
O8          O  0.59817166  0.57189652  0.02656773    -0.55630
C9          C  0.61719298  0.58942760  0.09071048     0.78130
O10         O  0.58321616  0.58957510  0.04315807    -0.58010
O11         O  0.58551071  0.55088226  0.07100584    -0.56460
O12         O  0.63223916  0.58977348  0.04938197    -0.56450
O13         O  0.62618387  0.57706954  0.08380844    -0.55620
O14         O  0.64810011  0.64854007  0.20371896    -0.56830
C15         C  0.64843845  0.61873522  0.15464428     0.75800
O16         O  0.69713806  0.62041540  0.18458630    -0.57990
C17         C  0.65562942  0.64627291  0.21887201     0.75770
C18         C  0.65329718  0.59044442  0.20425028     0.78170
Cd19       Cd  0.66455647  0.62370257  0.18921192     1.37460
O20         O  0.64144661  0.62936156  0.16578395    -0.56820
O21         O  0.64284829  0.60087682  0.19602233    -0.55630
C22         C  0.69930229  0.63603526  0.17839512     0.78130
O23         O  0.66948070  0.59521361  0.20560886    -0.58010
O24         O  0.66279634  0.61121151  0.15944216    -0.56460
O25         O  0.66710367  0.63399849  0.21982804    -0.56450
O26         O  0.68553907  0.64577494  0.17765726    -0.55620
O27         O  0.32184627  0.70778239  0.84509436    -0.56830
C28         C  0.35053208  0.66076084  0.83747986     0.75800
O29         O  0.33851238  0.69551763  0.78841162    -0.57990
C30         C  0.32024357  0.72258146  0.83698234     0.75770
C31         C  0.37426661  0.70908639  0.83051126     0.78170
Cd32       Cd  0.34053317  0.69438338  0.82165702     1.37470
O33         O  0.33580567  0.66790873  0.84175767    -0.56820
O34         O  0.36167360  0.70666577  0.84141007    -0.55630
C35         C  0.32464411  0.68587541  0.78777016     0.78130
O36         O  0.37099110  0.70579097  0.81410629    -0.58010
O37         O  0.35931651  0.66837989  0.82516353    -0.56460
O38         O  0.32662420  0.72370409  0.82130770    -0.56450
O39         O  0.31802220  0.68093427  0.80262946    -0.55620
O40         O  0.38370425  0.55238538  0.90258573    -0.56830
C41         C  0.38405052  0.59990621  0.87094804     0.75800
O42         O  0.43322929  0.57265505  0.87358646    -0.57990
C43         C  0.38922493  0.53677650  0.89932839     0.75770
C44         C  0.38984503  0.54960687  0.84455713     0.78170
Cd45       Cd  0.40095618  0.56604963  0.87748594     1.37470
O46         O  0.37759724  0.58925714  0.88253671    -0.56820
O47         O  0.37939874  0.55793081  0.85476261    -0.55630
C48         C  0.43649192  0.57521098  0.89008501     0.78130
O49         O  0.40617256  0.54924892  0.84916103    -0.58010
O50         O  0.39844665  0.59521584  0.86356411    -0.56460
O51         O  0.40060965  0.53521376  0.88695067    -0.56450
O52         O  0.42348371  0.57334353  0.90074858    -0.55620
O53         O  0.51726882  0.60498082  0.90795863    -0.56830
C54         C  0.56725493  0.63017932  0.91390786     0.75800
O55         O  0.51686130  0.65023659  0.93889118    -0.57990
C56         C  0.50346744  0.60249530  0.91743126     0.75770
C57         C  0.54746643  0.60909928  0.96439880     0.78170
Cd58       Cd  0.53359246  0.62277964  0.93078238     1.37470
O59         O  0.55739069  0.61776369  0.90799045    -0.56820
O60         O  0.54953131  0.60115919  0.94958126    -0.55630
C61         C  0.51912653  0.65718345  0.92347817     0.78130
O62         O  0.53790787  0.62299161  0.96390268    -0.58010
O63         O  0.56189755  0.63829023  0.92769260    -0.56460
O64         O  0.50432029  0.60763340  0.93353583    -0.56450
O65         O  0.52795345  0.64828851  0.91233844    -0.55620
O66         O  0.67933003  0.65871779  0.85782779    -0.56830
C67         C  0.63126768  0.66246919  0.88677693     0.75800
O68         O  0.68223198  0.68676491  0.90636707    -0.57990
C69         C  0.69382048  0.66741206  0.85692081     0.75770
C70         C  0.65400994  0.71461245  0.86622456     0.78170
Cd71       Cd  0.66475651  0.67971339  0.87892155     1.37460
O72         O  0.63794417  0.66141229  0.87116436    -0.56820
O73         O  0.65402342  0.70098039  0.85634263    -0.55630
C74         C  0.68253022  0.67065361  0.91161315     0.78130
O75         O  0.65898540  0.71210954  0.88232924    -0.58010
O76         O  0.63965743  0.67176323  0.89806541    -0.56460
O77         O  0.69413791  0.68206934  0.86508416    -0.56450
O78         O  0.67485398  0.65941449  0.90173679    -0.55620
O79         O  0.56456743  0.04986227  0.59864260    -0.56830
C80         C  0.56205265  0.09786580  0.63128074     0.75800
O81         O  0.51259167  0.06770373  0.62126707    -0.57990
C82         C  0.55858856  0.03445473  0.60232734     0.75770
C83         C  0.55329289  0.04873644  0.65577605     0.78170
Cd84       Cd  0.54550581  0.06460365  0.62170474     1.37460
O85         O  0.56827904  0.08892233  0.61831930    -0.56820
O86         O  0.56503492  0.05377073  0.64469118    -0.55630
C87         C  0.51204473  0.07586644  0.60631334     0.78130
O88         O  0.53712857  0.05113085  0.65117732    -0.58010
O89         O  0.54813261  0.09174957  0.63862018    -0.56460
O90         O  0.54577285  0.03362370  0.61327406    -0.56450
O91         O  0.52674519  0.07769415  0.59817257    -0.55620
O92         O  0.60257325  0.19258662  0.71210301    -0.56830
C93         C  0.56859485  0.21005009  0.67053646     0.75800
O94         O  0.62625099  0.20844860  0.65967668    -0.57990
C95         C  0.61641360  0.18298170  0.71321137     0.75770
C96         C  0.59312227  0.16097129  0.66299991     0.78170
Cd97       Cd  0.60246739  0.19462756  0.67877224     1.37470
O98         O  0.57389985  0.20923720  0.68674061    -0.56820
O99         O  0.58493827  0.16790126  0.67600550    -0.55630
C100        C  0.62387246  0.22393984  0.66585479     0.78130
O101        O  0.60635856  0.16966462  0.65689058    -0.58010
O102        O  0.57898380  0.20394662  0.65874355    -0.56460
O103        O  0.62401922  0.17956104  0.69847354    -0.56450
O104        O  0.61266835  0.22527445  0.67841611    -0.55620
O105        O  0.65196326  0.83914110  0.37846262    -0.56830
C106        C  0.69836457  0.82586693  0.35466078     0.75800
O107        O  0.68041091  0.80605953  0.41240491    -0.57990
C108        C  0.63962009  0.83185404  0.38743855     0.75770
C109        C  0.66477957  0.77876402  0.36600757     0.78170
Cd110      Cd  0.67264259  0.81334374  0.38035530     1.37460
O111        O  0.68375960  0.83393454  0.35710232    -0.56820
O112        O  0.65891589  0.79298391  0.35891187    -0.55630
C113        C  0.68944113  0.82010175  0.41470191     0.78130
O114        O  0.67424041  0.78049918  0.38002242    -0.58010
O115        O  0.70061301  0.81139046  0.36312217    -0.56460
O116        O  0.64215061  0.81579453  0.39185220    -0.56450
O117        O  0.69107356  0.83004200  0.40113300    -0.55620
O118        O  0.54643767  0.88029772  0.46692423    -0.56830
C119        C  0.53128007  0.84564740  0.42532787     0.75800
O120        O  0.53227131  0.90348772  0.41494205    -0.57990
C121        C  0.55522032  0.89464872  0.46820732     0.75770
C122        C  0.57941937  0.86961440  0.41683444     0.78170
Cd123      Cd  0.54656766  0.87951399  0.43369881     1.37470
O124        O  0.53626938  0.84891597  0.44127184    -0.56820
O125        O  0.57386677  0.86272297  0.43130043    -0.55630
C126        C  0.51673422  0.90023607  0.42092209     0.78130
O127        O  0.57045723  0.88256974  0.41052829    -0.58010
O128        O  0.53303757  0.85813890  0.41400840    -0.56460
O129        O  0.56006047  0.90176891  0.45354152    -0.56450
O130        O  0.51572135  0.88864085  0.43324870    -0.55620
O131        O  0.57814422  0.91523839  0.55174048    -0.56830
C132        C  0.61129633  0.91729113  0.59993911     0.75800
O133        O  0.63053729  0.93936033  0.55243655    -0.57990
C134        C  0.58078052  0.92198533  0.53626687     0.75770
C135        C  0.58790039  0.96886277  0.57542228     0.78170
Cd136      Cd  0.60113538  0.93414203  0.56657272     1.37470
O137        O  0.59608980  0.91403317  0.59308963    -0.56820
O138        O  0.57917920  0.95479306  0.57874753    -0.55630
C139        C  0.63274146  0.92285707  0.54952107     0.78130
O140        O  0.60297053  0.96700103  0.56799190    -0.58010
O141        O  0.62054470  0.92905221  0.59212341    -0.56460
O142        O  0.59128881  0.93513465  0.53556589    -0.56450
O143        O  0.62065788  0.91240009  0.55490399    -0.55620
O144        O  0.68980418  0.87292428  0.69785786    -0.56830
C145        C  0.64823688  0.90772140  0.71218589     0.75800
O146        O  0.63407321  0.87064084  0.67328596    -0.57990
C147        C  0.69090578  0.86002900  0.68706275     0.75770
C148        C  0.64496393  0.85210359  0.72709180     0.78170
Cd149      Cd  0.65682052  0.87404386  0.69756535     1.37470
O150        O  0.66451730  0.90327717  0.71101321    -0.56820
O151        O  0.65841341  0.86221078  0.72782325    -0.55630
C152        C  0.63995731  0.88359536  0.66399979     0.78130
O153        O  0.63722183  0.85115483  0.71194366    -0.58010
O154        O  0.63674788  0.89640115  0.70748657    -0.56460
O155        O  0.67635270  0.85362205  0.68131702    -0.56450
O156        O  0.65399574  0.89101735  0.66975605    -0.55620
O157        O  0.43084941  0.10266134  0.58520538    -0.56830
C158        C  0.38129543  0.13256173  0.58231346     0.75800
O159        O  0.42803437  0.15608478  0.56046823    -0.57990
C160        C  0.44601163  0.10512051  0.57803964     0.75770
C161        C  0.40745743  0.11308669  0.53171656     0.78170
Cd162      Cd  0.41579674  0.12616063  0.56685361     1.37460
O163        O  0.39183472  0.12140105  0.58958904    -0.56820
O164        O  0.40478266  0.10377136  0.54570497    -0.55630
C165        C  0.42953910  0.15986392  0.57697426     0.78130
O166        O  0.41397785  0.12846580  0.53393202    -0.58010
O167        O  0.38644318  0.13967493  0.56779216    -0.56460
O168        O  0.44660324  0.11648229  0.56544029    -0.56450
O169        O  0.42524205  0.14802953  0.58826765    -0.55620
O170        O  0.27227502  0.16148519  0.64632264    -0.56830
C171        C  0.31885788  0.16447048  0.61359063     0.75800
O172        O  0.27740642  0.18948062  0.59323908    -0.57990
C173        C  0.25763426  0.17000982  0.64622586     0.75770
C174        C  0.29565792  0.21538228  0.63979509     0.78170
Cd175      Cd  0.28640627  0.18195096  0.62419270     1.37470
O176        O  0.31164172  0.16049730  0.62851167    -0.56820
O177        O  0.30104890  0.20065925  0.64612556    -0.55630
C178        C  0.26866213  0.17515452  0.59135972     0.78130
O179        O  0.28597804  0.21477733  0.62583549    -0.58010
O180        O  0.31142866  0.17660710  0.60444441    -0.56460
O181        O  0.25715359  0.18419895  0.63700196    -0.56450
O182        O  0.26765305  0.16480515  0.60476156    -0.55620
O183        O  0.76560440  0.37343664  0.68816750    -0.56830
C184        C  0.80241358  0.40715149  0.70829908     0.75800
O185        O  0.81696244  0.35048419  0.70222751    -0.57990
C186        C  0.76479721  0.35984088  0.67830820     0.75770
C187        C  0.81629856  0.38680279  0.65690778     0.78170
Cd188      Cd  0.79831595  0.37490581  0.68926064     1.37470
O189        O  0.78742848  0.40310224  0.70157396    -0.56820
O190        O  0.80088459  0.39191956  0.66137498    -0.55630
C191        C  0.80937660  0.35099730  0.71744930     0.78130
O192        O  0.82340452  0.37519679  0.66709943    -0.58010
O193        O  0.81513512  0.39636936  0.70620057    -0.56460
O194        O  0.77962180  0.35322662  0.67367287    -0.56450
O195        O  0.79668696  0.36191108  0.71894882    -0.55620
O196        O  0.83355963  0.44144437  0.54688519    -0.56830
C197        C  0.87489665  0.46914583  0.57342118     0.75800
O198        O  0.86480802  0.41569753  0.58871967    -0.57990
C199        C  0.83053826  0.42495953  0.54467299     0.75770
C200        C  0.88539258  0.42307180  0.53215936     0.78170
Cd201      Cd  0.86269880  0.43523214  0.56104506     1.37470
O202        O  0.86235475  0.46816127  0.56198317    -0.56820
O203        O  0.87639977  0.43729326  0.53120046    -0.55630
C204        C  0.84943880  0.42015776  0.59439579     0.78130
O205        O  0.88508413  0.41489327  0.54716999    -0.58010
O206        O  0.88225263  0.45462404  0.57796894    -0.56460
O207        O  0.84290165  0.41422283  0.54869203    -0.56450
O208        O  0.84134648  0.43171422  0.58509252    -0.55620
O209        O  0.57284922  0.79710547  0.81810519    -0.56830
C210        C  0.61668078  0.82264795  0.79338526     0.75800
O211        O  0.60673991  0.83439135  0.84933113    -0.57990
C212        C  0.56824064  0.79454833  0.83431140     0.75770
C213        C  0.62326692  0.78034491  0.83844719     0.78170
Cd214      Cd  0.60195456  0.81032090  0.82685991     1.37460
O215        O  0.60167996  0.81486220  0.79390367    -0.56820
O216        O  0.61444025  0.78061569  0.82395697    -0.55630
C217        C  0.59382167  0.84374418  0.84352799     0.78130
O218        O  0.62327173  0.79469263  0.84733483    -0.58010
O219        O  0.62499416  0.82384101  0.80816161    -0.56460
O220        O  0.57934296  0.79893952  0.84628761    -0.56450
O221        O  0.58526649  0.83774417  0.83024862    -0.55620
O222        O  0.56882157  0.95432585  0.90234427    -0.56830
C223        C  0.56379224  0.90696199  0.87434752     0.75800
O224        O  0.51310043  0.93940547  0.88482158    -0.57990
C225        C  0.55952069  0.96804501  0.90540326     0.75770
C226        C  0.55215196  0.95772665  0.84943918     0.78170
Cd227      Cd  0.54617224  0.93987283  0.88301071     1.37460
O228        O  0.56770762  0.91513490  0.88867047    -0.56820
O229        O  0.56348154  0.95688052  0.86199743    -0.55630
C230        C  0.51248518  0.92880323  0.89810588     0.78130
O231        O  0.53720445  0.95041248  0.85243024    -0.58010
O232        O  0.55172698  0.91378960  0.86462304    -0.56460
O233        O  0.54372531  0.96799836  0.89936095    -0.56450
O234        O  0.52739982  0.92389269  0.90446364    -0.55620
O235        O  0.57458871  0.08681777  0.95508389    -0.56830
C236        C  0.60429251  0.08736619  0.90390137     0.75800
O237        O  0.62933120  0.06741477  0.94988303    -0.57990
C238        C  0.57966047  0.08084054  0.97029855     0.75770
C239        C  0.58628461  0.03568401  0.92959587     0.78170
Cd240      Cd  0.59838872  0.07084938  0.93835765     1.37470
O241        O  0.59282926  0.09387588  0.91452792    -0.56820
O242        O  0.57581770  0.04893097  0.92932936    -0.55630
C243        C  0.63119279  0.08406717  0.95213113     0.78130
O244        O  0.60222628  0.03857678  0.93455561    -0.58010
O245        O  0.61163239  0.07298461  0.90877166    -0.56460
O246        O  0.59176647  0.06911527  0.97018934    -0.56450
O247        O  0.61807594  0.09370609  0.94786715    -0.55620
O248        O  0.66123135  0.10061327  0.79380242    -0.56830
C249        C  0.68965809  0.14210542  0.81963136     0.75800
O250        O  0.63751029  0.15348026  0.79428952    -0.57990
C251        C  0.64472270  0.09703806  0.79230746     0.75770
C252        C  0.63806415  0.11924396  0.84215786     0.78170
Cd253      Cd  0.65521001  0.12915451  0.80894621     1.37470
O254        O  0.68807306  0.12699779  0.81234017    -0.56820
O255        O  0.65001151  0.10998856  0.83478222    -0.55630
C256        C  0.64435167  0.15111719  0.77888871     0.78130
O257        O  0.63448701  0.13414229  0.83480512    -0.58010
O258        O  0.67546510  0.15100670  0.82141698    -0.56460
O259        O  0.63392243  0.10847752  0.79825791    -0.56450
O260        O  0.65619761  0.13922104  0.77799118    -0.55620
O261        O  0.68316898  0.16913556  0.14816023    -0.56830
C262        C  0.63977814  0.17055757  0.11432444     0.75800
O263        O  0.66954921  0.22143442  0.12236174    -0.57990
C264        C  0.69898068  0.17503240  0.14709465     0.75770
C265        C  0.68910337  0.18204177  0.09138650     0.78170
Cd266      Cd  0.67185036  0.18889759  0.12439868     1.37470
O267        O  0.64732298  0.16689051  0.12913444    -0.56820
O268        O  0.68734887  0.17026815  0.10343721    -0.55630
C269        C  0.66498425  0.22359349  0.13853004     0.78130
O270        O  0.68398452  0.19766050  0.09500324    -0.58010
O271        O  0.64609626  0.18367357  0.10577959    -0.56460
O272        O  0.70171813  0.18774885  0.13621994    -0.56450
O273        O  0.66297240  0.20968882  0.14798005    -0.55620
O274        O  0.53416113  0.15641751  0.06371421    -0.56830
C275        C  0.55222152  0.10865858  0.03707620     0.75800
O276        O  0.56894801  0.12378335  0.09225710    -0.57990
C277        C  0.52881466  0.15934764  0.07958115     0.75770
C278        C  0.51561624  0.10283534  0.08332909     0.78170
Cd279      Cd  0.54356047  0.12544083  0.07055205     1.37470
O280        O  0.54172212  0.12190217  0.03742835    -0.56820
O281        O  0.51398003  0.11300847  0.06980084    -0.55630
C282        C  0.57787444  0.13558370  0.08386805     0.78130
O283        O  0.53077476  0.10261974  0.09105281    -0.58010
O284        O  0.55822750  0.10322439  0.05206413    -0.56460
O285        O  0.52945346  0.14652210  0.09061241    -0.56450
O286        O  0.57124145  0.14115919  0.06927674    -0.55620
O287        O  0.31836750  0.29600969  0.66424105    -0.56830
C288        C  0.35072796  0.34326228  0.66595759     0.75800
O289        O  0.33992492  0.31236635  0.71671126    -0.57990
C290        C  0.32176328  0.28064847  0.67058639     0.75770
C291        C  0.37454407  0.29485164  0.67473964     0.78170
Cd292      Cd  0.34121702  0.31063851  0.68350374     1.37470
O293        O  0.33801031  0.33393730  0.65982108    -0.56820
O294        O  0.36282828  0.29959897  0.66345903    -0.55630
C295        C  0.32586281  0.32174169  0.71704375     0.78130
O296        O  0.37109369  0.29789738  0.69112840    -0.58010
O297        O  0.35788310  0.33789913  0.68042770    -0.56460
O298        O  0.33218662  0.27988474  0.68395376    -0.56450
O299        O  0.31881593  0.32521784  0.70195338    -0.55620
O300        O  0.38782171  0.45245295  0.60137064    -0.56830
C301        C  0.38608871  0.40519956  0.63673119     0.75800
O302        O  0.43748075  0.43476517  0.62857860    -0.57990
C303        C  0.39488505  0.46751507  0.60452627     0.75770
C304        C  0.39148707  0.45397448  0.65786311     0.78170
Cd305      Cd  0.40438097  0.43725826  0.62629036     1.37460
O306        O  0.38254564  0.41241359  0.62162548    -0.56820
O307        O  0.38216086  0.45167302  0.64391353    -0.55630
C308        C  0.43948473  0.42722727  0.61351720     0.78130
O309        O  0.40781849  0.44942099  0.65701091    -0.58010
O310        O  0.39877876  0.41193690  0.64553083    -0.56460
O311        O  0.40667419  0.46780483  0.61671165    -0.56450
O312        O  0.42532554  0.42414849  0.60472981    -0.55620
O313        O  0.52200977  0.39985661  0.59630006    -0.56830
C314        C  0.57150242  0.37124053  0.59170745     0.75800
O315        O  0.51950250  0.35220867  0.56766166    -0.57990
C316        C  0.50721941  0.39958604  0.58792214     0.75770
C317        C  0.55056675  0.39280041  0.54115602     0.78170
Cd318      Cd  0.53744568  0.37919703  0.57515568     1.37470
O319        O  0.56357010  0.38564742  0.59557584    -0.56820
O320        O  0.54881113  0.40241170  0.55491254    -0.55630
C321        C  0.52022671  0.34607627  0.58360143     0.78130
O322        O  0.54496783  0.37693954  0.54270731    -0.58010
O323        O  0.56400675  0.36151432  0.58016872    -0.56460
O324        O  0.50715968  0.39140135  0.57313465    -0.56450
O325        O  0.52909001  0.35504526  0.59476877    -0.55620
O326        O  0.64760324  0.34785246  0.63200590    -0.56830
C327        C  0.69913592  0.33114146  0.64945307     0.75800
O328        O  0.66451237  0.29048987  0.62562923    -0.57990
C329        C  0.63826571  0.34392301  0.61834291     0.75770
C330        C  0.68761309  0.33274292  0.59529866     0.78170
Cd331      Cd  0.66911355  0.32321741  0.62705722     1.37460
O332        O  0.68417127  0.33843870  0.65245895    -0.56820
O333        O  0.68163218  0.34383149  0.60640736    -0.55630
C334        C  0.65478427  0.28973188  0.63950884     0.78130
O335        O  0.68414626  0.31644346  0.59832171    -0.58010
O336        O  0.69932863  0.31961714  0.63723734    -0.56460
O337        O  0.64305653  0.33052072  0.60938060    -0.56450
O338        O  0.65209337  0.30423447  0.64754938    -0.55620
O339        O  0.32776786  0.44049746  0.95661856    -0.56830
C340        C  0.36671168  0.46954332  0.92897811     0.75800
O341        O  0.38036653  0.41651851  0.95538513    -0.57990
C342        C  0.32379014  0.42407010  0.95697309     0.75770
C343        C  0.34398570  0.41885999  0.90778997     0.78170
Cd344      Cd  0.35614692  0.43479399  0.94097192     1.37460
O345        O  0.35304480  0.46737604  0.93870070    -0.56820
O346        O  0.33579480  0.43082062  0.91623221    -0.55630
C347        C  0.37831166  0.42348832  0.97075065     0.78130
O348        O  0.35908069  0.41435277  0.91428484    -0.58010
O349        O  0.37597943  0.45587382  0.92566257    -0.56460
O350        O  0.33518475  0.41328692  0.95097177    -0.56450
O351        O  0.36741929  0.43627865  0.97153615    -0.55620
O352        O  0.25931014  0.37623430  0.82026970    -0.56830
C353        C  0.29400246  0.40808457  0.79852029     0.75800
O354        O  0.31734211  0.37398290  0.83582710    -0.57990
C355        C  0.25699210  0.36011897  0.82457691     0.75770
C356        C  0.30277616  0.35357174  0.78398020     0.78170
Cd357      Cd  0.29114844  0.37400268  0.81453437     1.37460
O358        O  0.27920407  0.39998088  0.79814288    -0.56820
O359        O  0.29277662  0.36704832  0.78298188    -0.55630
C360        C  0.30951503  0.38335465  0.84752059     0.78130
O361        O  0.30754685  0.34894114  0.79972003    -0.58010
O362        O  0.30697242  0.40045595  0.80621584    -0.56460
O363        O  0.27064914  0.35019551  0.82421383    -0.56450
O364        O  0.29325845  0.38668296  0.84443863    -0.55620
O365        O  0.62092610  0.31765590  0.21715513    -0.56830
C366        C  0.58805033  0.30027384  0.17458218     0.75800
O367        O  0.62477486  0.34312354  0.16370907    -0.57990
C368        C  0.63403562  0.32826351  0.21809399     0.75770
C369        C  0.64229835  0.28942083  0.16939846     0.78170
Cd370      Cd  0.62079100  0.31700747  0.18408617     1.37470
O371        O  0.59271596  0.30022780  0.19099268    -0.56820
O372        O  0.63545144  0.28808603  0.18483881    -0.55630
C373        C  0.60972674  0.34977447  0.16766958     0.78130
O374        O  0.64116146  0.30442429  0.16160745    -0.58010
O375        O  0.59864074  0.30767254  0.16371860    -0.56460
O376        O  0.64139589  0.33276790  0.20346119    -0.56450
O377        O  0.60113202  0.34226661  0.18018949    -0.55620
O378        O  0.52629375  0.43711284  0.12227586    -0.56830
C379        C  0.56326459  0.45893485  0.15423878     0.75800
O380        O  0.58190892  0.41817966  0.11768602    -0.57990
C381        C  0.52468455  0.43093468  0.10660216     0.75770
C382        C  0.57060988  0.47052713  0.09905197     0.78170
Cd383      Cd  0.55848091  0.44155621  0.12103262     1.37470
O384        O  0.54764583  0.45485265  0.14923665    -0.56820
O385        O  0.55592289  0.47086744  0.10733242    -0.55630
C386        C  0.57759992  0.41009789  0.13204799     0.78130
O387        O  0.57954648  0.45624142  0.10010490    -0.58010
O388        O  0.57571132  0.45577100  0.14333167    -0.56460
O389        O  0.53887920  0.42929549  0.09759119    -0.56450
O390        O  0.56393790  0.41569014  0.14009464    -0.55620
O391        O  0.34272670  0.21171152  0.15897660    -0.56830
C392        C  0.37283058  0.16303847  0.16368583     0.75800
O393        O  0.39286287  0.21188571  0.18708281    -0.57990
C394        C  0.34256214  0.22608382  0.16784051     0.75770
C395        C  0.34847790  0.18546916  0.21267136     0.78170
Cd396      Cd  0.36428649  0.19676183  0.17942467     1.37460
O397        O  0.35945470  0.17178093  0.15794978    -0.56820
O398        O  0.34044212  0.18475744  0.19772010    -0.55630
C399        C  0.39717893  0.21376056  0.17068835     0.78130
O400        O  0.36404619  0.19212016  0.21247443    -0.58010
O401        O  0.38124516  0.16973703  0.17675131    -0.56460
O402        O  0.35167077  0.22618797  0.18214986    -0.56450
O403        O  0.38635434  0.20771974  0.15919849    -0.55620
O404        O  0.39543917  0.04907005  0.10337124    -0.56830
C405        C  0.40044313  0.09667250  0.13573091     0.75800
O406        O  0.42388998  0.04841803  0.15363125    -0.57990
C407        C  0.40375269  0.03436727  0.10337545     0.75770
C408        C  0.45024085  0.07391003  0.11179309     0.78170
Cd409      Cd  0.41599247  0.06341277  0.12516168     1.37470
O410        O  0.39423623  0.08861209  0.12212253    -0.56820
O411        O  0.43596897  0.07688245  0.10306976    -0.55630
C412        C  0.40770502  0.04559073  0.15764092     0.78130
O413        O  0.44866118  0.06549998  0.12650845    -0.58010
O414        O  0.41415313  0.08991039  0.14293269    -0.56460
O415        O  0.41828681  0.03402183  0.11204508    -0.56450
O416        O  0.39589990  0.05130183  0.14694283    -0.55620
O417        O  0.28547918  0.34474322  0.15107424    -0.56830
C418        C  0.33224582  0.34406144  0.11749165     0.75800
O419        O  0.30534749  0.29376395  0.12507855    -0.57990
C420        C  0.27069836  0.33649537  0.15039595     0.75770
C421        C  0.28090744  0.33184355  0.09541399     0.78170
Cd422      Cd  0.29993249  0.32586610  0.12782222     1.37470
O423        O  0.32487274  0.34781649  0.13231732    -0.56820
O424        O  0.28532857  0.34441330  0.10569366    -0.55630
C425        C  0.31122122  0.29147324  0.14085424     0.78130
O426        O  0.28535237  0.31620149  0.10001370    -0.58010
O427        O  0.32504094  0.33184655  0.10846701    -0.56460
O428        O  0.27007684  0.32328202  0.14003260    -0.56450
O429        O  0.31189844  0.30523602  0.15055111    -0.55620
O430        O  0.44240159  0.40428380  0.08970941    -0.56830
C431        C  0.39460702  0.37569866  0.08535319     0.75800
O432        O  0.42409798  0.38426471  0.03531961    -0.57990
C433        C  0.45682389  0.40554754  0.08098481     0.75770
C434        C  0.44516957  0.35042668  0.07639114     0.78170
Cd435      Cd  0.42807820  0.38369877  0.06852950     1.37460
O436        O  0.40443913  0.38796581  0.09156069    -0.56820
O437        O  0.43879346  0.36032362  0.08836208    -0.55630
C438        C  0.41504238  0.39851385  0.03497437     0.78130
O439        O  0.44364342  0.35566742  0.06021884    -0.58010
O440        O  0.40026599  0.36769465  0.07161328    -0.56460
O441        O  0.45714533  0.39826483  0.06573871    -0.56450
O442        O  0.41262774  0.40602593  0.04994685    -0.55620
O443        O  0.78566162  0.89697765  0.29663780    -0.56830
C444        C  0.75993097  0.85572568  0.32103416     0.75800
O445        O  0.81601660  0.84896477  0.29945856    -0.57990
C446        C  0.80171409  0.90206569  0.29506088     0.75770
C447        C  0.80946066  0.87928935  0.34792322     0.78170
Cd448      Cd  0.79435133  0.86971259  0.31340520     1.37460
O449        O  0.76225682  0.87199776  0.31726748    -0.56820
O450        O  0.79709300  0.88775647  0.34008351    -0.55630
C451        C  0.80776574  0.84841957  0.28455438     0.78130
O452        O  0.81429049  0.86496554  0.34043346    -0.58010
O453        O  0.77354055  0.84576376  0.32109889    -0.56460
O454        O  0.81349965  0.89239844  0.30233910    -0.56450
O455        O  0.79325317  0.85694330  0.28373245    -0.55620
O456        O  0.85020954  0.96110533  0.44036377    -0.56830
C457        C  0.81732895  0.91974889  0.46123465     0.75800
O458        O  0.85287848  0.90485356  0.42113785    -0.57990
C459        C  0.86556419  0.96212688  0.43329589     0.75770
C460        C  0.87152870  0.91762133  0.47617015     0.78170
Cd461      Cd  0.85069290  0.92829167  0.44512836     1.37460
O462        O  0.82134387  0.93591176  0.45828280    -0.56820
O463        O  0.86157669  0.93119343  0.47575584    -0.55630
C464        C  0.84057108  0.91183129  0.41162754     0.78130
O465        O  0.87323006  0.90941881  0.46139057    -0.58010
O466        O  0.82868536  0.90811380  0.45707544    -0.56460
O467        O  0.87405160  0.94759355  0.43228222    -0.56450
O468        O  0.83442147  0.92637847  0.41725338    -0.55620
O469        O  0.27328308  0.84061210  0.85410647    -0.56830
C470        C  0.32081443  0.83725059  0.88661980     0.75800
O471        O  0.27176950  0.81652574  0.90816234    -0.57990
C472        C  0.25737573  0.83595600  0.85758498     0.75770
C473        C  0.29281480  0.78729214  0.86625406     0.78170
Cd474      Cd  0.28613312  0.82255300  0.87888310     1.37460
O475        O  0.31134998  0.84405686  0.87417588    -0.56820
O476        O  0.29263914  0.80056854  0.85569122    -0.55630
C477        C  0.27212170  0.83284219  0.91240585     0.78130
O478        O  0.28958311  0.79024746  0.88263786    -0.58010
O479        O  0.31460093  0.82349184  0.89415175    -0.56460
O480        O  0.25508140  0.82482883  0.87018229    -0.56450
O481        O  0.27795050  0.84367882  0.90079159    -0.55620
O482        O  0.39132547  0.88232093  0.91480819    -0.56830
C483        C  0.44726736  0.89763792  0.92636086     0.75800
O484        O  0.41330614  0.87559793  0.96980474    -0.57990
C485        C  0.38272503  0.86876138  0.92030306     0.75770
C486        C  0.43237502  0.84513931  0.92591184     0.78170
Cd487      Cd  0.41633815  0.87740664  0.93675135     1.37460
O488        O  0.43206379  0.90154473  0.91976989    -0.56820
O489        O  0.42781137  0.85731921  0.91503425    -0.55630
C490        C  0.40782430  0.89144471  0.97146737     0.78130
O491        O  0.42916615  0.84762648  0.94246417    -0.58010
O492        O  0.44745922  0.88530304  0.93796604    -0.56460
O493        O  0.38910328  0.86063369  0.93378939    -0.56450
O494        O  0.40633832  0.90041313  0.95706176    -0.55620
O495        O  0.16831101  0.21043261  0.37202659    -0.56830
C496        C  0.18604313  0.17012853  0.40349186     0.75800
O497        O  0.14797278  0.15336474  0.36794152    -0.57990
C498        C  0.16245666  0.21293129  0.35624322     0.75770
C499        C  0.20197213  0.16878698  0.34903490     0.78170
Cd500      Cd  0.17092278  0.17808921  0.36960011     1.37470
O501        O  0.18244485  0.18611876  0.39938035    -0.56820
O502        O  0.20220182  0.17937160  0.36213316    -0.55630
C503        C  0.13692618  0.16116656  0.37811558     0.78130
O504        O  0.18681006  0.16255755  0.34459805    -0.58010
O505        O  0.18307582  0.15834617  0.39185518    -0.56460
O506        O  0.16065453  0.19934377  0.34641773    -0.56450
O507        O  0.14128282  0.17662689  0.38295698    -0.55620
O508        O  0.04412375  0.12272947  0.45902340    -0.56830
C509        C  0.02290332  0.15318616  0.41548905     0.75800
O510        O  0.06557925  0.11442288  0.40564500    -0.57990
C511        C  0.05049526  0.10722787  0.46117072     0.75770
C512        C  0.00839268  0.09900175  0.41511349     0.78170
Cd513      Cd  0.03913213  0.12016275  0.42611159     1.37470
O514        O  0.02621777  0.15026573  0.43201615    -0.56820
O515        O  0.00869175  0.10791090  0.42947851    -0.55630
C516        C  0.07290429  0.12930175  0.40896031     0.78130
O517        O  0.02289596  0.09855862  0.40631903    -0.58010
O518        O  0.02642038  0.14064068  0.40490977    -0.56460
O519        O  0.05114781  0.09767452  0.44725720    -0.56450
O520        O  0.06508796  0.13879089  0.42043698    -0.55620
O521        O  0.29688339  0.10680659  0.29027455    -0.56830
C522        C  0.26941761  0.14686986  0.31860200     0.75800
O523        O  0.32499886  0.13880028  0.33161673    -0.57990
C524        C  0.31323838  0.10278739  0.28852841     0.75770
C525        C  0.31612467  0.15835498  0.27792892     0.78170
Cd526      Cd  0.30369500  0.13512953  0.30610617     1.37470
O527        O  0.27069845  0.13423217  0.30751292    -0.56820
O528        O  0.30180439  0.14951208  0.27692848    -0.55630
C529        C  0.32027612  0.12429331  0.33907643     0.78130
O530        O  0.32415364  0.15785192  0.29294580    -0.58010
O531        O  0.28379811  0.15457893  0.32299572    -0.56460
O532        O  0.32440035  0.11361569  0.29493048    -0.56450
O533        O  0.30755577  0.11596061  0.33175982    -0.55620
O534        O  0.36579938  0.09634514  0.41002579    -0.56830
C535        C  0.38205948  0.08746336  0.46375321     0.75800
O536        O  0.33211619  0.06494111  0.44642678    -0.57990
C537        C  0.35295021  0.09044876  0.40066378     0.75770
C538        C  0.37670567  0.03980318  0.42457117     0.78170
Cd539      Cd  0.36169230  0.07372060  0.43431697     1.37470
O540        O  0.38368903  0.09416872  0.44816059    -0.56820
O541        O  0.38390049  0.05445123  0.42018125    -0.55630
C542        C  0.32820662  0.08076701  0.45064749     0.78130
O543        O  0.36274541  0.04089051  0.43401846    -0.58010
O544        O  0.37257587  0.07363794  0.46519919    -0.56460
O545        O  0.34491847  0.07690899  0.40674467    -0.56450
O546        O  0.33955585  0.09260954  0.44683008    -0.55620
O547        O  0.82647591  0.70543133  0.67089488    -0.56830
C548        C  0.85914490  0.65864738  0.67374799     0.75800
O549        O  0.87906334  0.70458590  0.69662367    -0.57990
C550        C  0.82566016  0.71971172  0.67983907     0.75770
C551        C  0.83570003  0.68023030  0.72526882     0.78170
Cd552      Cd  0.84902064  0.69140887  0.69070444     1.37460
O553        O  0.84420500  0.66563172  0.66973529    -0.56820
O554        O  0.82676237  0.67835988  0.71094494    -0.55630
C555        C  0.88098830  0.70983184  0.68048597     0.78130
O556        O  0.85095384  0.68738001  0.72371972    -0.58010
O557        O  0.86819985  0.66663821  0.68549147    -0.56460
O558        O  0.83476349  0.72011050  0.69419497    -0.56450
O559        O  0.86792276  0.70714376  0.67007771    -0.55620
O560        O  0.88339106  0.58877152  0.62526903    -0.56830
C561        C  0.89614868  0.53573427  0.60609165     0.75800
O562        O  0.93967531  0.56929053  0.63031994    -0.57990
C563        C  0.89073846  0.59847606  0.63706246     0.75770
C564        C  0.89678152  0.54853225  0.66054696     0.78170
Cd565      Cd  0.90714078  0.56529988  0.62760815     1.37460
O566        O  0.89060280  0.55125852  0.60216589    -0.56820
O567        O  0.88588647  0.55464610  0.64908312    -0.55630
C568        C  0.94201096  0.57492397  0.61441862     0.78130
O569        O  0.91325535  0.55027811  0.65697149    -0.58010
O570        O  0.90726515  0.53464839  0.61887152    -0.56460
O571        O  0.90584775  0.59334571  0.64262661    -0.56450
O572        O  0.92826658  0.57570974  0.60447983    -0.55620
O573        O  0.02121300  0.65318590  0.56446190    -0.56830
C574        C  0.04873778  0.60918181  0.53751325     0.75800
O575        O  0.06093893  0.62139194  0.59364482    -0.57990
C576        C  0.02050734  0.65736438  0.58096911     0.75770
C577        C  0.00781135  0.60150546  0.58443891     0.78170
Cd578      Cd  0.03612607  0.62394110  0.57118999     1.37460
O579        O  0.03825957  0.62242822  0.53769252    -0.56820
O580        O  0.00637596  0.61025252  0.56991855    -0.55630
C581        C  0.06958059  0.63438896  0.58694897     0.78130
O582        O  0.02283798  0.60204561  0.59230727    -0.58010
O583        O  0.05270012  0.60255827  0.55271682    -0.56460
O584        O  0.02653426  0.64608832  0.59206295    -0.56450
O585        O  0.06308313  0.64138033  0.57287352    -0.55620
O586        O  0.17665357  0.66337325  0.65335161    -0.56830
C587        C  0.13108830  0.66810924  0.62003817     0.75800
O588        O  0.16471194  0.71721974  0.63096983    -0.57990
C589        C  0.19154255  0.67130972  0.65444953     0.75770
C590        C  0.18132662  0.67592638  0.59747687     0.78170
Cd591      Cd  0.16435432  0.68430616  0.63058137     1.37460
O592        O  0.13866382  0.66346305  0.63460225    -0.56820
O593        O  0.17590289  0.66432287  0.60852952    -0.55630
C594        C  0.15401064  0.71840823  0.64403011     0.78130
O595        O  0.17961618  0.69208696  0.60194394    -0.58010
O596        O  0.13828205  0.68088246  0.61157967    -0.56460
O597        O  0.19322645  0.68542917  0.64531282    -0.56450
O598        O  0.14858414  0.70397689  0.65094064    -0.55620
O599        O  0.77488430  0.81246363  0.61142874    -0.56830
C600        C  0.79732367  0.78712382  0.65498408     0.75800
O601        O  0.81198787  0.84545151  0.64185691    -0.57990
C602        C  0.77294391  0.82850465  0.60637904     0.75770
C603        C  0.75784767  0.83451831  0.65907001     0.78170
Cd604      Cd  0.78854153  0.82146676  0.64026742     1.37470
O605        O  0.79168048  0.78905652  0.63903308    -0.56820
O606        O  0.75706025  0.82311095  0.64672586    -0.55630
C607        C  0.82232696  0.83778027  0.63087660     0.78130
O608        O  0.77334051  0.83915237  0.66424141    -0.58010
O609        O  0.79830740  0.80115125  0.66425744    -0.56460
O610        O  0.77853870  0.84038296  0.61691359    -0.56450
O611        O  0.81739128  0.82264359  0.62557915    -0.55620
O612        O  0.91263511  0.87809407  0.54426380    -0.56830
C613        C  0.93566437  0.84723136  0.58433764     0.75800
O614        O  0.93173069  0.90095890  0.59795696    -0.57990
C615        C  0.90463091  0.89286053  0.54273565     0.75770
C616        C  0.88452542  0.86931529  0.59680551     0.78170
Cd617      Cd  0.91662063  0.87948357  0.57745287     1.37470
O618        O  0.92891890  0.85007988  0.56891922    -0.56820
O619        O  0.89239520  0.85953326  0.58562213    -0.55630
C620        C  0.94615309  0.90153232  0.58907760     0.78130
O621        O  0.89104206  0.88475828  0.59877801    -0.58010
O622        O  0.93346953  0.85914968  0.59599251    -0.56460
O623        O  0.90238284  0.90134562  0.55719268    -0.56450
O624        O  0.94615480  0.89330356  0.57431706    -0.55620
O625        O  0.06683699  0.95597421  0.60025983    -0.56830
C626        C  0.06449538  0.90911087  0.63609186     0.75800
O627        O  0.04323500  0.95639934  0.65439800    -0.57990
C628        C  0.06088960  0.97158807  0.60276883     0.75770
C629        C  0.01307975  0.93271464  0.61234194     0.78170
Cd630      Cd  0.04849757  0.94230440  0.62481056     1.37470
O631        O  0.06929692  0.91610681  0.62126567    -0.56820
O632        O  0.02691869  0.93010358  0.60299504    -0.55630
C633        C  0.05971593  0.95952378  0.65696472     0.78130
O634        O  0.01552161  0.94004538  0.62743195    -0.58010
O635        O  0.05211538  0.91700430  0.64422528    -0.56460
O636        O  0.04848332  0.97292852  0.61417032    -0.56450
O637        O  0.07025937  0.95470095  0.64473864    -0.55620
O638        O  0.12901807  0.80000011  0.66495642    -0.56830
C639        C  0.09680990  0.84583820  0.66791139     0.75800
O640        O  0.07484482  0.80367959  0.69343204    -0.57990
C641        C  0.12831852  0.78467015  0.67218900     0.75770
C642        C  0.12143772  0.82257227  0.71949852     0.78170
Cd643      Cd  0.10605891  0.81258258  0.68536586     1.37460
O644        O  0.10855027  0.83584506  0.66105783    -0.56820
O645        O  0.12689234  0.82887097  0.70468846    -0.55630
C646        C  0.07230243  0.79547256  0.67882675     0.78130
O647        O  0.10922562  0.81094823  0.71868670    -0.58010
O648        O  0.09024198  0.84043744  0.68259409    -0.56460
O649        O  0.11877424  0.78300678  0.68606988    -0.56450
O650        O  0.08512003  0.79529303  0.66788568    -0.55620
O651        O  0.16612920  0.10061276  0.70223590    -0.56830
C652        C  0.19191291  0.14282947  0.67612373     0.75800
O653        O  0.13758961  0.13451528  0.66250519    -0.57990
C654        C  0.15017826  0.09775372  0.70721755     0.75770
C655        C  0.14693748  0.15167604  0.71834537     0.78170
Cd656      Cd  0.15826999  0.12980029  0.68882769     1.37470
O657        O  0.19106465  0.12848146  0.68512507    -0.56820
O658        O  0.16060696  0.14182219  0.71899754    -0.55630
C659        C  0.13996268  0.11895155  0.65643778     0.78130
O660        O  0.13914276  0.15272757  0.70320601    -0.58010
O661        O  0.17745334  0.15126262  0.67396542    -0.56460
O662        O  0.13892483  0.10992760  0.70408957    -0.56450
O663        O  0.15096922  0.10926213  0.66484646    -0.55620
O664        O  0.10095163  0.09480730  0.58032111    -0.56830
C665        C  0.08227078  0.08322568  0.52829682     0.75800
O666        O  0.13212705  0.06060039  0.54301357    -0.57990
C667        C  0.11207736  0.08810612  0.59133605     0.75770
C668        C  0.08840991  0.03709834  0.57075883     0.78170
Cd669      Cd  0.10396780  0.07030060  0.55807724     1.37460
O670        O  0.08314713  0.09158296  0.54297394    -0.56820
O671        O  0.08141869  0.05212852  0.57365477    -0.55630
C672        C  0.13889206  0.07604167  0.54367860     0.78130
O673        O  0.10275258  0.03736519  0.56177445    -0.58010
O674        O  0.09047840  0.06855658  0.52785685    -0.56460
O675        O  0.11826299  0.07295617  0.58747604    -0.56450
O676        O  0.12941434  0.08810768  0.55039286    -0.55620
O677        O  0.78546073  0.59885885  0.80067025    -0.56830
C678        C  0.75981894  0.63869785  0.82903529     0.75800
O679        O  0.81609566  0.62950380  0.84417644    -0.57990
C680        C  0.80080352  0.59186998  0.80196005     0.75770
C681        C  0.80851750  0.64689034  0.78976855     0.78170
Cd682      Cd  0.79439964  0.62525946  0.81865070     1.37460
O683        O  0.76195590  0.62302644  0.82338671    -0.56820
O684        O  0.79373380  0.63888985  0.78863706    -0.55630
C685        C  0.81150028  0.61528162  0.85222662     0.78130
O686        O  0.81646550  0.64596011  0.80481199    -0.58010
O687        O  0.77377254  0.64818847  0.82988265    -0.56460
O688        O  0.81258321  0.60052463  0.81030944    -0.56450
O689        O  0.79834312  0.60716251  0.84547464    -0.55620
O690        O  0.86011921  0.53297437  0.94519642    -0.56830
C691        C  0.82859178  0.57166917  0.96442726     0.75800
O692        O  0.88453275  0.58545409  0.95991531    -0.57990
C693        C  0.87340692  0.53135359  0.93491727     0.75770
C694        C  0.84731788  0.58214744  0.91374642     0.78170
Cd695      Cd  0.86100488  0.56564423  0.94641018     1.37470
O696        O  0.83365312  0.55584321  0.96171420    -0.56820
O697        O  0.84159703  0.56775714  0.92038313    -0.55630
C698        C  0.88313707  0.57880682  0.97559564     0.78130
O699        O  0.86077015  0.58886343  0.92164323    -0.58010
O700        O  0.83842604  0.58414905  0.95882653    -0.56460
O701        O  0.88150883  0.54551715  0.93045979    -0.56450
O702        O  0.87302520  0.56541135  0.97698653    -0.55620
O703        O  0.32671584  0.56293439  0.55149232    -0.56830
C704        C  0.36767788  0.53476465  0.57715699     0.75800
O705        O  0.37987623  0.58865336  0.55201144    -0.57990
C706        C  0.32469796  0.57884376  0.54600785     0.75770
C707        C  0.34328694  0.58702112  0.59795760     0.78170
Cd708      Cd  0.35582894  0.56960670  0.56564763     1.37460
O709        O  0.35456227  0.53663013  0.56654356    -0.56820
O710        O  0.33468244  0.57528603  0.58948236    -0.55630
C711        C  0.38003782  0.58038272  0.53718768     0.78130
O712        O  0.35879986  0.59041975  0.59199994    -0.58010
O713        O  0.37518410  0.54900298  0.58218719    -0.56460
O714        O  0.33702849  0.58974500  0.54955542    -0.56450
O715        O  0.36999589  0.56689130  0.53633104    -0.55620
O716        O  0.28229253  0.59903388  0.70555743    -0.56830
C717        C  0.25686138  0.64230225  0.68262336     0.75800
O718        O  0.30759006  0.65405327  0.70763016    -0.57990
C719        C  0.29804687  0.59549970  0.71072663     0.75770
C720        C  0.30843377  0.61849156  0.66023728     0.78170
Cd721      Cd  0.29094730  0.62872513  0.69337874     1.37460
O722        O  0.25841165  0.62731111  0.69034923    -0.56820
O723        O  0.29277184  0.61407295  0.66452393    -0.55630
C724        C  0.30086842  0.65118898  0.72303537     0.78130
O725        O  0.31607919  0.62929590  0.67081131    -0.58010
O726        O  0.27106731  0.65116907  0.68030920    -0.56460
O727        O  0.30967881  0.60732954  0.70798491    -0.56450
O728        O  0.28914144  0.63915885  0.72402828    -0.55620
O729        O  0.28653137  0.66188841  0.35406675    -0.56830
C730        C  0.33306385  0.66207327  0.38914497     0.75800
O731        O  0.30359897  0.71330769  0.37665288    -0.57990
C732        C  0.27152441  0.66958739  0.35544827     0.75770
C733        C  0.28187467  0.67366407  0.41017006     0.78170
Cd734      Cd  0.30104248  0.68040353  0.37778220     1.37470
O735        O  0.32450547  0.65667990  0.37547817    -0.56820
O736        O  0.28497827  0.66201043  0.39843915    -0.55630
C737        C  0.31328701  0.71371169  0.36273135     0.78130
O738        O  0.28813008  0.68907901  0.40714582    -0.58010
O739        O  0.32707429  0.67590279  0.39657008    -0.56460
O740        O  0.27108852  0.68281952  0.36581979    -0.56450
O741        O  0.31683127  0.69879977  0.35584296    -0.55620
O742        O  0.42318834  0.62099404  0.47170488    -0.56830
C743        C  0.44606967  0.65297105  0.42844465     0.75800
O744        O  0.44385377  0.59965579  0.41805399    -0.57990
C745        C  0.41491984  0.60624433  0.47215566     0.75770
C746        C  0.39516991  0.62960964  0.42231698     0.78170
Cd747      Cd  0.42878535  0.62039266  0.43869947     1.37470
O748        O  0.44431775  0.64928571  0.44504848    -0.56820
O749        O  0.40259140  0.63845262  0.43463480    -0.55630
C750        C  0.45828563  0.59906501  0.42699187     0.78130
O751        O  0.40335088  0.61575369  0.41715785    -0.58010
O752        O  0.43962397  0.64181889  0.41759979    -0.56460
O753        O  0.41431271  0.59776746  0.45752454    -0.56450
O754        O  0.45841043  0.60671304  0.44207193    -0.55620
O755        O  0.94151673  0.40209539  0.41165721    -0.56830
C756        C  0.89153439  0.37089067  0.41508016     0.75800
O757        O  0.93703651  0.35000814  0.43710493    -0.57990
C758        C  0.95607050  0.40068772  0.42040032     0.75770
C759        C  0.91342778  0.39433138  0.46569710     0.78170
Cd760      Cd  0.92506241  0.38047616  0.43125059     1.37460
O761        O  0.89904463  0.38529156  0.41010421    -0.56820
O762        O  0.91187891  0.40319228  0.45121478    -0.55630
C763        C  0.94075811  0.34741701  0.42067029     0.78130
O764        O  0.92101756  0.37930334  0.46444006    -0.58010
O765        O  0.89942232  0.36214743  0.42725987    -0.56460
O766        O  0.95538774  0.39141260  0.43463119    -0.56450
O767        O  0.93775016  0.36013942  0.40988709    -0.55620
O768        O  0.78212090  0.34167456  0.34942723    -0.56830
C769        C  0.83029561  0.33786315  0.38092500     0.75800
O770        O  0.78127315  0.31561227  0.40124560    -0.57990
C771        C  0.76687070  0.33457690  0.35141593     0.75770
C772        C  0.80418741  0.28720212  0.35840982     0.78170
Cd773      Cd  0.79649951  0.32198047  0.37227762     1.37470
O774        O  0.82083105  0.34446009  0.36837510    -0.56820
O775        O  0.80590823  0.30126022  0.34903915    -0.55630
C776        C  0.77993045  0.33201059  0.40495663     0.78130
O777        O  0.79902048  0.28929951  0.37444462    -0.58010
O778        O  0.82471887  0.32342369  0.38771381    -0.56460
O779        O  0.76616792  0.32119895  0.36178569    -0.56450
O780        O  0.78689111  0.34285812  0.39404169    -0.55620
O781        O  0.65094619  0.35391470  0.29999951    -0.56830
C782        C  0.65162305  0.38479021  0.35055257     0.75800
O783        O  0.69908790  0.38055257  0.31950958    -0.57990
C784        C  0.65819291  0.35770352  0.28502373     0.75770
C785        C  0.65211231  0.41048551  0.30081137     0.78170
Cd786      Cd  0.66625716  0.37853709  0.31567955     1.37460
O787        O  0.64542283  0.37224898  0.34099312    -0.56820
O788        O  0.64249675  0.39755851  0.30584483    -0.55630
C789        C  0.70033703  0.36496502  0.32612222     0.78130
O790        O  0.66893254  0.40858952  0.30220161    -0.58010
O791        O  0.66436578  0.39367965  0.34391992    -0.56460
O792        O  0.66946664  0.37023500  0.28485520    -0.56450
O793        O  0.68609723  0.35595101  0.32696421    -0.55620
O794        O  0.63661923  0.44210854  0.45953500    -0.56830
C795        C  0.59544833  0.46432796  0.43447890     0.75800
O796        O  0.60549749  0.40859451  0.42236359    -0.57990
C797        C  0.64185542  0.42681238  0.46438382     0.75770
C798        C  0.58519493  0.41801582  0.47574047     0.78170
Cd799      Cd  0.60840768  0.43069182  0.44731027     1.37470
O800        O  0.60713785  0.46330288  0.44670597    -0.56820
O801        O  0.59295855  0.43294108  0.47602934    -0.55630
C802        C  0.61991553  0.41342726  0.41485026     0.78130
O803        O  0.58731910  0.40907884  0.46154295    -0.58010
O804        O  0.58918377  0.44970815  0.42888625    -0.56460
O805        O  0.63126798  0.41395207  0.46209292    -0.56450
O806        O  0.62813458  0.42615425  0.42214805    -0.55620
O807        O  0.54270806  0.54612903  0.35636128    -0.56830
C808        C  0.52342458  0.57043248  0.39828819     0.75800
O809        O  0.57536426  0.54511409  0.40618909    -0.57990
C810        C  0.55690090  0.54689019  0.34723456     0.75770
C811        C  0.57726748  0.59243378  0.37576945     0.78170
Cd812      Cd  0.55692503  0.56037733  0.38276373     1.37470
O813        O  0.52586119  0.56973709  0.38152190    -0.56820
O814        O  0.56046918  0.59173197  0.37453460    -0.55630
C815        C  0.57066994  0.52966345  0.40128374     0.78130
O816        O  0.58489446  0.57859381  0.38180391    -0.58010
O817        O  0.53657119  0.56639367  0.40825928    -0.56460
O818        O  0.57034291  0.55388207  0.35459186    -0.56450
O819        O  0.55916196  0.52890708  0.38889221    -0.55620
O820        O  0.64353596  0.69771650  0.34132618    -0.56830
C821        C  0.61001253  0.65204341  0.33969368     0.75800
O822        O  0.59047844  0.69840650  0.31547655    -0.57990
C823        C  0.64296499  0.71284594  0.33364243     0.75770
C824        C  0.63160060  0.67494342  0.28629077     0.78170
Cd825      Cd  0.61990788  0.68466772  0.32180382     1.37470
O826        O  0.62576893  0.65801098  0.34138592    -0.56820
O827        O  0.64021336  0.67073803  0.30035247    -0.55630
C828        C  0.58853235  0.70373544  0.33150552     0.78130
O829        O  0.61756459  0.68397773  0.28864674    -0.58010
O830        O  0.59969452  0.66057612  0.32932361    -0.56460
O831        O  0.63292222  0.71409922  0.32003058    -0.56450
O832        O  0.60087725  0.69999388  0.34250496    -0.55620
O833        O  0.17925551  0.60014492  0.30419675    -0.56830
C834        C  0.20415034  0.64475013  0.32579880     0.75800
O835        O  0.14974868  0.65155495  0.29949689    -0.57990
C836        C  0.16393428  0.59680883  0.29775660     0.75770
C837        C  0.15248050  0.61961802  0.34822452     0.78170
Cd838      Cd  0.17012281  0.62986929  0.31504839     1.37460
O839        O  0.20319125  0.63094555  0.31618806    -0.56820
O840        O  0.16538730  0.61125429  0.34143241    -0.55630
C841        C  0.15810774  0.65106552  0.28468556     0.78130
O842        O  0.14747381  0.63350240  0.33977741    -0.58010
O843        O  0.18937354  0.65149700  0.33032338    -0.56460
O844        O  0.15219264  0.60875039  0.29919590    -0.56450
O845        O  0.17253473  0.64237597  0.28480023    -0.55620
O846        O  0.13401628  0.56621384  0.45901819    -0.56830
C847        C  0.09276074  0.53635056  0.43179884     0.75800
O848        O  0.08017717  0.58753520  0.45790468    -0.57990
C849        C  0.13729100  0.58281176  0.45964994     0.75770
C850        C  0.11639843  0.58728943  0.40939241     0.78170
Cd851      Cd  0.10538986  0.57106026  0.44296040     1.37470
O852        O  0.10800460  0.53823862  0.43901727    -0.56820
O853        O  0.12347717  0.57353476  0.41621296    -0.55630
C854        C  0.08420764  0.58207430  0.47363490     0.78130
O855        O  0.10274236  0.59326746  0.41748099    -0.58010
O856        O  0.08338191  0.55032167  0.43061811    -0.56460
O857        O  0.12620014  0.59310803  0.45211048    -0.56450
O858        O  0.09686415  0.57101952  0.47456779    -0.55620
O859        O  0.17954409  0.40246728  0.20847050    -0.56830
C860        C  0.20418356  0.36298696  0.17922138     0.75800
O861        O  0.14893760  0.35369419  0.20562859    -0.57990
C862        C  0.16437055  0.40977170  0.20720763     0.75770
C863        C  0.15067705  0.38429516  0.15890639     0.78170
Cd864      Cd  0.16984400  0.37563063  0.19152977     1.37460
O865        O  0.20256998  0.37724189  0.18797264    -0.56820
O866        O  0.16498824  0.39203447  0.16334745    -0.55630
C867        C  0.15707032  0.35275598  0.22053002     0.78130
O868        O  0.14575863  0.37135300  0.16874649    -0.58010
O869        O  0.18989865  0.35440584  0.17641629    -0.56460
O870        O  0.15226146  0.40109200  0.19939982    -0.56450
O871        O  0.17131837  0.36169595  0.22149634    -0.55620
O872        O  0.13428033  0.43831659  0.04730105    -0.56830
C873        C  0.09401853  0.46755835  0.07449948     0.75800
O874        O  0.08034195  0.41526120  0.04985636    -0.57990
C875        C  0.13807231  0.42185137  0.04682319     0.75770
C876        C  0.11750053  0.41536502  0.09604751     0.78170
Cd877      Cd  0.10584305  0.43265088  0.06323481     1.37470
O878        O  0.10740899  0.46584127  0.06432193    -0.56820
O879        O  0.12594606  0.42799247  0.08868046    -0.55630
C880        C  0.08408517  0.41981295  0.03383298     0.78130
O881        O  0.10255320  0.41127136  0.08908644    -0.58010
O882        O  0.08604167  0.45326410  0.07868671    -0.56460
O883        O  0.12682693  0.41127220  0.05366089    -0.56450
O884        O  0.09640656  0.43113638  0.03194639    -0.55620
O885        O  0.07823376  0.45406037  0.40260121    -0.56830
C886        C  0.07678821  0.40678802  0.36949004     0.75800
O887        O  0.02569121  0.43508370  0.37752458    -0.57990
C888        C  0.06933789  0.46843125  0.40251722     0.75770
C889        C  0.06748785  0.45771481  0.34791193     0.78170
Cd890      Cd  0.05859291  0.43895749  0.38001298     1.37460
O891        O  0.07977450  0.41327583  0.38492893    -0.56820
O892        O  0.07889875  0.45354764  0.35972530    -0.55630
C893        C  0.02357903  0.42834933  0.39302071     0.78130
O894        O  0.05141185  0.45323181  0.35077926    -0.58010
O895        O  0.06479334  0.41431173  0.36022170    -0.56460
O896        O  0.05528172  0.46835093  0.39306249    -0.56450
O897        O  0.03770816  0.42630319  0.40221897    -0.55620
O898        O  0.11763219  0.33236458  0.34473918    -0.56830
C899        C  0.13487010  0.28021725  0.33193700     0.75800
O900        O  0.08375269  0.29640605  0.31303533    -0.57990
C901        C  0.10620546  0.34309547  0.33824025     0.75770
C902        C  0.12881988  0.32144140  0.28635236     0.78170
Cd903      Cd  0.11357093  0.30995565  0.32031358     1.37460
O904        O  0.13803416  0.29565796  0.33792692    -0.56820
O905        O  0.13743153  0.32137216  0.30098626    -0.55630
C906        C  0.07953220  0.29448512  0.32946820     0.78130
O907        O  0.11300341  0.31545227  0.28719509    -0.58010
O908        O  0.12295758  0.27890124  0.31995847    -0.56460
O909        O  0.09942943  0.33892183  0.32327530    -0.56450
O910        O  0.09100829  0.29956006  0.34076464    -0.55620
O911        O  0.39745873  0.91769113  0.38322863    -0.56830
C912        C  0.40750953  0.97380157  0.39914849     0.75800
O913        O  0.45128784  0.94226689  0.37787381    -0.57990
C914        C  0.40185601  0.91035519  0.36855212     0.75770
C915        C  0.40555654  0.95931035  0.34592917     0.78170
Cd916      Cd  0.41809084  0.94364645  0.37833904     1.37470
O917        O  0.40048001  0.95864745  0.40209076    -0.56820
O918        O  0.39593382  0.95633008  0.35951447    -0.55630
C919        C  0.45240252  0.93267517  0.39192325     0.78130
O920        O  0.42205533  0.95552492  0.34743508    -0.58010
O921        O  0.41995644  0.97424110  0.38773020    -0.56460
O922        O  0.41385328  0.91818731  0.35957405    -0.56450
O923        O  0.43783542  0.92898678  0.39969034    -0.55620
O924        O  0.36276902  0.83433494  0.34748191    -0.56830
C925        C  0.34369909  0.78017438  0.33663686     0.75800
O926        O  0.36393558  0.81417576  0.29161493    -0.57990
C927        C  0.37458441  0.84378064  0.33974738     0.75770
C928        C  0.39759436  0.79239219  0.33408296     0.78170
Cd929      Cd  0.36487477  0.80987797  0.32479261     1.37470
O930        O  0.34155416  0.79533607  0.34374242    -0.56820
O931        O  0.38679205  0.79851310  0.34547054    -0.55630
C932        C  0.34835666  0.82081502  0.29145138     0.78130
O933        O  0.39377963  0.79502496  0.31761861    -0.58010
O934        O  0.35452481  0.77953815  0.32364827    -0.56460
O935        O  0.38054161  0.83778767  0.32514280    -0.56450
O936        O  0.34047668  0.82143434  0.30645087    -0.55620
O937        O  0.09743162  0.91183266  0.92174753    -0.56830
C938        C  0.07750211  0.92188240  0.97586776     0.75800
O939        O  0.12923803  0.94221696  0.96167045    -0.57990
C940        C  0.11109498  0.91763093  0.91350636     0.75770
C941        C  0.08728483  0.96816998  0.93474921     0.78170
Cd942      Cd  0.10040078  0.93408132  0.94689036     1.37470
O943        O  0.07936466  0.91288010  0.96163933    -0.56820
O944        O  0.07776475  0.95425853  0.93381421    -0.55630
C945        C  0.13302722  0.92615184  0.96536786     0.78130
O946        O  0.10252714  0.96647198  0.94197040    -0.58010
O947        O  0.08505404  0.93694661  0.97609627    -0.56460
O948        O  0.11825084  0.93133415  0.92004067    -0.56450
O949        O  0.12177760  0.91460405  0.96064677    -0.55620
O950        O  0.16871745  0.90338198  0.80232078    -0.56830
C951        C  0.19243343  0.86281013  0.82702125     0.75800
O952        O  0.13491400  0.87264380  0.84040254    -0.57990
C953        C  0.15310107  0.90862957  0.79845894     0.75770
C954        C  0.14540125  0.85411488  0.78592760     0.78170
Cd955      Cd  0.15802418  0.87529789  0.81582281     1.37460
O956        O  0.19066561  0.87667732  0.81749874    -0.56820
O957        O  0.15600623  0.86707245  0.78439436    -0.55630
C958        C  0.14046756  0.88633002  0.84860811     0.78130
O959        O  0.14106798  0.84969369  0.80181932    -0.58010
O960        O  0.17842457  0.85411681  0.83062874    -0.56460
O961        O  0.14030088  0.89851056  0.80282669    -0.56450
O962        O  0.15397340  0.89385314  0.84189102    -0.55620
O963        O  0.90221935  0.61664882  0.10041246    -0.56830
C964        C  0.95596322  0.60283211  0.08871036     0.75800
O965        O  0.92219865  0.62149720  0.04251180    -0.57990
C966        C  0.89169888  0.62872923  0.09486857     0.75770
C967        C  0.93832160  0.65665971  0.08468959     0.78170
Cd968      Cd  0.92462389  0.62203656  0.07620548     1.37470
O969        O  0.94051178  0.59764905  0.09333234    -0.56820
O970        O  0.93604062  0.64452234  0.09626774    -0.55630
C971        C  0.91407676  0.60670742  0.04171653     0.78130
O972        O  0.93418315  0.65307213  0.06854885    -0.58010
O973        O  0.95660053  0.61556053  0.07752747    -0.56460
O974        O  0.89589922  0.63658599  0.08043499    -0.56450
O975        O  0.91119564  0.59915587  0.05667594    -0.55620
O976        O  0.82146136  0.65890577  0.13916263    -0.56830
C977        C  0.76597652  0.66529569  0.15264280     0.75800
O978        O  0.79661524  0.71129852  0.12897993    -0.57990
C979        C  0.82763136  0.65904928  0.12331698     0.75770
C980        C  0.77866491  0.67152821  0.09728173     0.78170
Cd981      Cd  0.79525278  0.67840185  0.13110759     1.37460
O982        O  0.78060698  0.65686639  0.15188513    -0.56820
O983        O  0.77752476  0.66111152  0.11062548    -0.55630
C984        C  0.80421137  0.71354126  0.14399148     0.78130
O985        O  0.78693518  0.68604725  0.09967054    -0.58010
O986        O  0.76543926  0.68008225  0.14443608    -0.56460
O987        O  0.81954053  0.66867638  0.11200531    -0.56450
O988        O  0.80777721  0.69966161  0.15302302    -0.55620
O989        O  0.07799875  0.59025738  0.12126079    -0.56830
C990        C  0.06849115  0.53391778  0.10531885     0.75800
O991        O  0.05324573  0.55112381  0.15749270    -0.57990
C992        C  0.07564849  0.59667745  0.13683620     0.75770
C993        C  0.02335837  0.57458206  0.11428411     0.78170
Cd994      Cd  0.05831315  0.56391802  0.12708896     1.37470
O995        O  0.07631636  0.54877793  0.10301515    -0.56820
O996        O  0.03765317  0.58037457  0.10738173    -0.55630
C997        C  0.06948226  0.54650944  0.15935254     0.78130
O998        O  0.02500105  0.56374047  0.12731283    -0.58010
O999        O  0.05573404  0.53392400  0.11632752    -0.56460
O1000       O  0.06516877  0.58832641  0.14715733    -0.56450
O1001       O  0.07991785  0.55030657  0.14657269    -0.55620
O1002       O  0.11574034  0.67150188  0.16058708    -0.56830
C1003       C  0.13491142  0.72210646  0.17313964     0.75800
O1004       O  0.08294861  0.70652173  0.19421982    -0.57990
C1005       C  0.10604356  0.65969909  0.16785989     0.75770
C1006       C  0.12883575  0.68254199  0.21929138     0.78170
Cd1007     Cd  0.11259469  0.69324516  0.18545915     1.37470
O1008       O  0.13345728  0.70790744  0.16418946    -0.56820
O1009       O  0.13658283  0.68067699  0.20430844    -0.55630
C1010       C  0.07881436  0.71037925  0.17811112     0.78130
O1011       O  0.11344924  0.68955966  0.21872199    -0.58010
O1012       O  0.12715247  0.72239121  0.18819545    -0.56460
O1013       O  0.10018959  0.66304560  0.18338327    -0.56450
O1014       O  0.08983434  0.70580299  0.16626741    -0.55620
O1015       O  0.16435205  0.79322451  0.13084878    -0.56830
C1016       C  0.18731265  0.83509826  0.10267705     0.75800
O1017       O  0.14392932  0.84567896  0.14202231    -0.57990
C1018       C  0.15942078  0.79012276  0.14683346     0.75770
C1019       C  0.20042565  0.83627598  0.15604571     0.78170
Cd1020     Cd  0.16971926  0.82528771  0.13507227     1.37460
O1021       O  0.18589866  0.81874059  0.10674638    -0.56820
O1022       O  0.19997397  0.82185678  0.14744293    -0.55630
C1023       C  0.13601023  0.84307283  0.12714595     0.78130
O1024       O  0.18600255  0.84512701  0.15643575    -0.58010
O1025       O  0.18038580  0.84597395  0.11345129    -0.56460
O1026       O  0.15942848  0.80324154  0.15742614    -0.56450
O1027       O  0.14320800  0.83197901  0.11675884    -0.55620
O1028       O  0.02574243  0.85199914  0.07218656    -0.56830
C1029       C  0.04918424  0.89537588  0.04341603     0.75800
O1030       O  0.02173902  0.90369584  0.09863808    -0.57990
C1031       C  0.02301524  0.84853728  0.08867215     0.75770
C1032       C  0.07258741  0.87484853  0.09588300     0.78170
Cd1033     Cd  0.03816431  0.88236013  0.07867094     1.37460
O1034       O  0.04244544  0.88004005  0.04563598    -0.56820
O1035       O  0.06711848  0.86704975  0.08194871    -0.55630
C1036       C  0.00741870  0.90382602  0.08947069     0.78130
O1037       O  0.06261318  0.88711890  0.10181615    -0.58010
O1038       O  0.05008669  0.90507112  0.05726454    -0.56460
O1039       O  0.02645595  0.86085860  0.09954873    -0.56450
O1040       O  0.00775527  0.89515485  0.07496307    -0.55620
O1041       O  0.36259848  0.90868231  0.09101518    -0.56830
C1042       C  0.38047091  0.92089943  0.03770682     0.75800
O1043       O  0.33251930  0.94294696  0.05303320    -0.57990
C1044       C  0.35114872  0.91587411  0.10118193     0.75770
C1045       C  0.37589808  0.96665604  0.07863797     0.78170
Cd1046     Cd  0.36050898  0.93311824  0.06803045     1.37470
O1047       O  0.38193632  0.91295907  0.05276177    -0.56820
O1048       O  0.38476523  0.95231309  0.07900671    -0.55630
C1049       C  0.32628169  0.92730644  0.05218216     0.78130
O1050       O  0.35994962  0.96539528  0.07309600    -0.58010
O1051       O  0.37103769  0.93480270  0.03755367    -0.56460
O1052       O  0.34621455  0.93137504  0.09681448    -0.56450
O1053       O  0.33581438  0.91495423  0.05857900    -0.55620
O1054       O  0.29591250  0.90102170  0.20951701    -0.56830
C1055       C  0.26809717  0.85868216  0.18648295     0.75800
O1056       O  0.32408933  0.86682203  0.17096288    -0.57990
C1057       C  0.31180680  0.90402062  0.21459106     0.75770
C1058       C  0.31609387  0.84884284  0.22601021     0.78170
Cd1059     Cd  0.30319596  0.87124969  0.19710428     1.37460
O1060       O  0.27033161  0.87350484  0.19414079    -0.56820
O1061       O  0.30185445  0.85784163  0.22697400    -0.55630
C1062       C  0.32029718  0.88188678  0.16414136     0.78130
O1063       O  0.32388960  0.84906686  0.21090236    -0.58010
O1064       O  0.28202074  0.84948948  0.18397686    -0.56460
O1065       O  0.32296036  0.89171624  0.21209919    -0.56450
O1066       O  0.30842579  0.89066741  0.17213242    -0.55620
O1067       O  0.90783072  0.04242007  0.35239175    -0.56830
C1068       C  0.94034530  0.06854692  0.39309862     0.75800
O1069       O  0.88283330  0.08395967  0.38480911    -0.57990
C1070       C  0.89120070  0.04302232  0.34896228     0.75770
C1071       C  0.89278578  0.02909909  0.40406848     0.78170
Cd1072     Cd  0.90449080  0.05852533  0.38149415     1.37460
O1073       O  0.93745714  0.06163727  0.37785971    -0.56820
O1074       O  0.90559274  0.02807378  0.39307941    -0.55630
C1075       C  0.88852643  0.09186223  0.37077504     0.78130
O1076       O  0.88589214  0.04443338  0.40571326    -0.58010
O1077       O  0.92676576  0.07063834  0.40299225    -0.56460
O1078       O  0.88154698  0.05025821  0.36064616    -0.56450
O1079       O  0.90236441  0.08538051  0.36371827    -0.55620
O1080       O  0.84500923  0.16466580  0.34330584    -0.56830
C1081       C  0.82976363  0.21962744  0.33153000     0.75800
O1082       O  0.88050910  0.20022694  0.31218608    -0.57990
C1083       C  0.85885020  0.15609546  0.33874303     0.75770
C1084       C  0.83582005  0.17925707  0.28627958     0.78170
Cd1085     Cd  0.85032418  0.18925691  0.32073212     1.37470
O1086       O  0.83012237  0.20576335  0.34139196    -0.56820
O1087       O  0.82790472  0.17570723  0.30090486    -0.55630
C1088       C  0.88345364  0.20705703  0.32742617     0.78130
O1089       O  0.85038584  0.18767226  0.28766968    -0.58010
O1090       O  0.83702932  0.21828777  0.31631891    -0.56460
O1091       O  0.86770263  0.16262044  0.32585906    -0.56450
O1092       O  0.87122940  0.20528464  0.33894345    -0.55620
O1093       O  0.78693837  0.10167933  0.20307960    -0.56830
C1094       C  0.76161783  0.14607734  0.18040187     0.75800
O1095       O  0.81419934  0.15372722  0.20459969    -0.57990
C1096       C  0.80310501  0.09786055  0.20654996     0.75770
C1097       C  0.81088487  0.12042090  0.15639364     0.78170
Cd1098     Cd  0.79506312  0.13081161  0.18996569     1.37470
O1099       O  0.76237548  0.13117464  0.18843673    -0.56820
O1100       O  0.79884625  0.11157424  0.16424770    -0.55630
C1101       C  0.80652422  0.15223167  0.21974419     0.78130
O1102       O  0.81542214  0.13502755  0.16358789    -0.58010
O1103       O  0.77631788  0.15349906  0.17670494    -0.56460
O1104       O  0.81465110  0.10962132  0.20296557    -0.56450
O1105       O  0.79366192  0.14139752  0.22051020    -0.55620
O1106       O  0.84815716  0.03831839  0.06391056    -0.56830
C1107       C  0.81773102  0.08274620  0.04493940     0.75800
O1108       O  0.85453387  0.09457393  0.08372679    -0.57990
C1109       C  0.86316949  0.03643805  0.07156211     0.75770
C1110       C  0.87069264  0.08171300  0.02938371     0.78170
Cd1111     Cd  0.85040435  0.07107548  0.06038770     1.37460
O1112       O  0.81995101  0.06622861  0.04799528    -0.56820
O1113       O  0.85889588  0.06970163  0.02891108    -0.55630
C1114       C  0.84240089  0.08835997  0.09386017     0.78130
O1115       O  0.87470879  0.08776544  0.04477310    -0.58010
O1116       O  0.83063776  0.09286281  0.04864540    -0.56460
O1117       O  0.87247580  0.05042255  0.07331734    -0.56450
O1118       O  0.83493657  0.07415670  0.08883325    -0.55620
O1119       O  0.93528013  0.93635382  0.12861199    -0.56830
C1120       C  0.89064749  0.95887021  0.15595309     0.75800
O1121       O  0.88312975  0.95527610  0.10051189    -0.57990
C1122       C  0.93840133  0.93030968  0.11307417     0.75770
C1123       C  0.88451633  0.90811200  0.13210949     0.78170
Cd1124     Cd  0.90246126  0.94121205  0.12397190     1.37460
O1125       O  0.90696167  0.95456331  0.15429906    -0.56820
O1126       O  0.89414522  0.91628197  0.14325734    -0.55630
C1127       C  0.89094139  0.97023900  0.10084818     0.78130
O1128       O  0.88326835  0.91484759  0.11646884    -0.58010
O1129       O  0.88060363  0.95535675  0.14281385    -0.56460
O1130       O  0.92518423  0.92986262  0.10244712    -0.56450
O1131       O  0.90462489  0.97124235  0.11085567    -0.55620
O1132       O  0.82808869  0.79654978  0.16129053    -0.56830
C1133       C  0.85516094  0.84469032  0.16340018     0.75800
O1134       O  0.85021376  0.81656666  0.21516101    -0.57990
C1135       C  0.82902389  0.78153987  0.16910983     0.75770
C1136       C  0.88254812  0.79457508  0.17689415     0.78170
Cd1137     Cd  0.84878159  0.81158770  0.18238774     1.37460
O1138       O  0.84118019  0.83574106  0.16027617    -0.56820
O1139       O  0.87110406  0.79686102  0.16460117    -0.55630
C1140       C  0.83412606  0.82133422  0.21691817     0.78130
O1141       O  0.87853981  0.80045204  0.19226545    -0.58010
O1142       O  0.86551793  0.83867770  0.17537958    -0.56460
O1143       O  0.83757038  0.78090550  0.18377161    -0.56450
O1144       O  0.82480541  0.82118250  0.20273028    -0.55620
O1145       O  0.91193108  0.12181574  0.96229878    -0.56830
C1146       C  0.93192247  0.15351123  0.91920689     0.75800
O1147       O  0.92944831  0.09789008  0.91049478    -0.57990
C1148       C  0.90249965  0.10786954  0.96358374     0.75770
C1149       C  0.88269708  0.13135559  0.90992060     0.78170
Cd1150     Cd  0.91450316  0.12099730  0.92908140     1.37470
O1151       O  0.92677475  0.15120284  0.93531829    -0.56820
O1152       O  0.88947786  0.14023475  0.92256536    -0.55630
C1153       C  0.94442618  0.09945756  0.91836094     0.78130
O1154       O  0.88983537  0.11639897  0.90666265    -0.58010
O1155       O  0.92926590  0.14072157  0.90865056    -0.56460
O1156       O  0.89878743  0.09998233  0.94907855    -0.56450
O1157       O  0.94475927  0.10951675  0.93190837    -0.55620
O1158       O  0.78929572  0.21187388  0.86657104    -0.56830
C1159       C  0.76880350  0.17392980  0.89961978     0.75800
O1160       O  0.77189983  0.15979722  0.84453589    -0.57990
C1161       C  0.79845778  0.21295494  0.85237197     0.75770
C1162       C  0.81952973  0.16160740  0.87729695     0.78170
Cd1163     Cd  0.78708956  0.17934110  0.86681582     1.37460
O1164       O  0.77389917  0.18940146  0.89516392    -0.56820
O1165       O  0.81445319  0.17618511  0.88390370    -0.55630
C1166       C  0.75763126  0.16888488  0.84463375     0.78130
O1167       O  0.80996194  0.15524855  0.86479048    -0.58010
O1168       O  0.77261180  0.16133356  0.88920496    -0.56460
O1169       O  0.80211274  0.19836486  0.84476470    -0.56450
O1170       O  0.75800235  0.18307667  0.85359992    -0.55620
O1171       O  0.88797036  0.45082063  0.90362416    -0.56830
C1172       C  0.89045490  0.40333866  0.87045637     0.75800
O1173       O  0.91321483  0.44993065  0.84995025    -0.57990
C1174       C  0.89485011  0.46608744  0.90119990     0.75770
C1175       C  0.94048503  0.42679272  0.89567642     0.78170
Cd1176     Cd  0.90665189  0.43669309  0.88001848     1.37460
O1177       O  0.88371472  0.41274233  0.88281718    -0.56820
O1178       O  0.92569498  0.42218900  0.90247101    -0.55630
C1179       C  0.89678376  0.45222628  0.84635031     0.78130
O1180       O  0.93977842  0.43616462  0.88144486    -0.58010
O1181       O  0.90499823  0.40881304  0.86381433    -0.56460
O1182       O  0.90771174  0.46714819  0.89032264    -0.56450
O1183       O  0.88575146  0.44744521  0.85823252    -0.55620
O1184       O  0.82620629  0.29367923  0.83407738    -0.56830
C1185       C  0.86087665  0.34064962  0.83718528     0.75800
O1186       O  0.88014436  0.29563057  0.81151197    -0.57990
C1187       C  0.82902743  0.27901041  0.82617371     0.75770
C1188       C  0.83785570  0.32115113  0.78321353     0.78170
Cd1189     Cd  0.85076569  0.30931680  0.81772954     1.37460
O1190       O  0.84614877  0.33302768  0.84073565    -0.56820
O1191       O  0.82941028  0.32390793  0.79764163    -0.55630
C1192       C  0.88238890  0.29081986  0.82777418     0.78130
O1193       O  0.85247533  0.31282253  0.78477690    -0.58010
O1194       O  0.86960169  0.33459750  0.82407273    -0.56460
O1195       O  0.84072750  0.27927325  0.81403416    -0.56450
O1196       O  0.87021985  0.29490030  0.83870907    -0.55620
O1197       O  0.12880786  0.20307434  0.83999592    -0.56830
C1198       C  0.09568558  0.15635742  0.83572652     0.75800
O1199       O  0.07623041  0.20296139  0.81285697    -0.57990
C1200       C  0.12774805  0.21844431  0.83289833     0.75770
C1201       C  0.12097558  0.18051978  0.78551558     0.78170
Cd1202     Cd  0.10597965  0.18990220  0.81987876     1.37470
O1203       O  0.10969027  0.16417843  0.84123489    -0.56820
O1204       O  0.12787997  0.17570803  0.80031167    -0.55630
C1205       C  0.07266394  0.20521727  0.82936256     0.78130
O1206       O  0.10685927  0.18974820  0.78656905    -0.58010
O1207       O  0.08753555  0.16378081  0.82281699    -0.56460
O1208       O  0.11740412  0.22015621  0.81956184    -0.56450
O1209       O  0.08476385  0.20132529  0.84056627    -0.55620
O1210       O  0.06897851  0.08707609  0.88450684    -0.56830
C1211       C  0.06040194  0.03389792  0.90478902     0.75800
O1212       O  0.01434874  0.06284820  0.88005329    -0.57990
C1213       C  0.06265207  0.09561453  0.87114547     0.75770
C1214       C  0.05735269  0.04599460  0.84810435     0.78170
Cd1215     Cd  0.04736468  0.06182358  0.88140958     1.37460
O1216       O  0.06853336  0.04866371  0.90370191    -0.56820
O1217       O  0.06822881  0.05278482  0.85905560    -0.55630
C1218       C  0.01240877  0.07128845  0.89460449     0.78130
O1219       O  0.04108962  0.04590905  0.85275171    -0.58010
O1220       O  0.04599134  0.03259726  0.89603392    -0.56460
O1221       O  0.04874609  0.08913985  0.86406343    -0.56450
O1222       O  0.02663659  0.07538586  0.90285360    -0.55620
O1223       O  0.13902691  0.33930369  0.87122393    -0.56830
C1224       C  0.19171879  0.33067782  0.85159767     0.75800
O1225       O  0.18071739  0.31115986  0.90378184    -0.57990
C1226       C  0.13206245  0.33522608  0.88621377     0.75770
C1227       C  0.15441408  0.28361288  0.86288669     0.78170
Cd1228     Cd  0.16465486  0.31821157  0.87537969     1.37460
O1229       O  0.17672050  0.33843290  0.85237301    -0.56820
O1230       O  0.15244537  0.29742484  0.85324481    -0.55630
C1231       C  0.18344001  0.32744142  0.90724614     0.78130
O1232       O  0.16127052  0.28578145  0.87826994    -0.58010
O1233       O  0.19362991  0.31664999  0.86088628    -0.56460
O1234       O  0.13953783  0.32275490  0.89486521    -0.56450
O1235       O  0.17805880  0.33867252  0.89575551    -0.55620
O1236       O  0.02197506  0.40219619  0.91727314    -0.56830
C1237       C  0.07026492  0.36801803  0.91938208     0.75800
O1238       O  0.03908101  0.38075949  0.96906201    -0.57990
C1239       C  0.00689102  0.39897603  0.92439337     0.75770
C1240       C  0.02280165  0.34602924  0.92390519     0.78170
Cd1241     Cd  0.03765001  0.37907003  0.93568977     1.37460
O1242       O  0.06181983  0.38118961  0.91266032    -0.56820
O1243       O  0.02642433  0.35899598  0.91371353    -0.55630
C1244       C  0.04995818  0.39372388  0.96924390     0.78130
O1245       O  0.02595588  0.34818449  0.94057557    -0.58010
O1246       O  0.06436951  0.36187700  0.93406255    -0.56460
O1247       O  0.00683200  0.38849878  0.93778282    -0.56450
O1248       O  0.05448138  0.40012206  0.95412600    -0.55620
O1249       O  0.71028856  0.89725387  0.51881057    -0.56830
C1250       C  0.75518409  0.88973010  0.49413275     0.75800
O1251       O  0.73758114  0.84461857  0.52721245    -0.57990
C1252       C  0.69623198  0.88926773  0.52356304     0.75770
C1253       C  0.71348340  0.84759510  0.48206083     0.78170
Cd1254     Cd  0.72605122  0.87012657  0.50994201     1.37460
O1255       O  0.73931036  0.89194096  0.48884930    -0.56820
O1256       O  0.71271530  0.86436072  0.48134170    -0.55630
C1257       C  0.74138928  0.85399390  0.54075744     0.78130
O1258       O  0.71985743  0.84071345  0.49622444    -0.58010
O1259       O  0.75760421  0.87823285  0.50633899    -0.56460
O1260       O  0.69620158  0.87252919  0.52212124    -0.56450
O1261       O  0.73726385  0.87030503  0.54007576    -0.55620
O1262       O  0.47771748  0.73208305  0.90321104    -0.56830
C1263       C  0.45795732  0.78061837  0.89429812     0.75800
O1264       O  0.48926457  0.76003143  0.85028390    -0.57990
C1265       C  0.48575121  0.71993702  0.89487197     0.75770
C1266       C  0.44020062  0.73729711  0.85838975     0.78170
Cd1267     Cd  0.47131735  0.75012174  0.87630485     1.37470
O1268       O  0.46188616  0.76660755  0.90296165    -0.56820
O1269       O  0.44082875  0.74056434  0.87499151    -0.55630
C1270       C  0.50174366  0.76612161  0.85997290     0.78130
O1271       O  0.45440475  0.73987810  0.84961152    -0.58010
O1272       O  0.46028871  0.78035866  0.87747896    -0.56460
O1273       O  0.48681648  0.72168809  0.87800336    -0.56450
O1274       O  0.50015091  0.76415169  0.87676677    -0.55620
O1275       O  0.22318000  0.15039549  0.48115685    -0.56830
C1276       C  0.24434974  0.14142888  0.52770141     0.75800
O1277       O  0.21397676  0.09602223  0.50279714    -0.57990
C1278       C  0.21759267  0.14248354  0.46736038     0.75770
C1279       C  0.26410008  0.10729135  0.48354071     0.78170
Cd1280     Cd  0.23199064  0.12305358  0.49695314     1.37460
O1281       O  0.24161937  0.14941716  0.51294452    -0.56820
O1282       O  0.26311970  0.12323047  0.48853127    -0.55630
C1283       C  0.20213669  0.10423034  0.51153866     0.78130
O1284       O  0.25002133  0.09813695  0.48514932    -0.58010
O1285       O  0.24150505  0.12482828  0.52827775    -0.56460
O1286       O  0.21843641  0.12572195  0.46738716    -0.56450
O1287       O  0.20422023  0.12079907  0.51334204    -0.55620
O1288       O  0.87462606  0.49005049  0.76949736    -0.56830
C1289       C  0.86587579  0.51463873  0.72286244     0.75800
O1290       O  0.82234863  0.47911277  0.75322582    -0.57990
C1291       C  0.86600380  0.48245644  0.78199331     0.75770
C1292       C  0.82964348  0.53048121  0.76784696     0.78170
Cd1293     Cd  0.84740311  0.50025175  0.75327584     1.37460
O1294       O  0.87454252  0.50803180  0.73594752    -0.56820
O1295       O  0.84558995  0.52660853  0.77180355    -0.55630
C1296       C  0.82722916  0.47133582  0.73909367     0.78130
O1297       O  0.82178631  0.52041811  0.75685032    -0.58010
O1298       O  0.84908433  0.51503001  0.72438164    -0.56460
O1299       O  0.84921443  0.48347426  0.78109147    -0.56450
O1300       O  0.84131400  0.47688834  0.73166132    -0.55620
O1301       O  0.51289423  0.26165831  0.15142968    -0.56830
C1302       C  0.46086140  0.24638223  0.14225168     0.75800
O1303       O  0.48315993  0.27486176  0.09812965    -0.57990
C1304       C  0.52447486  0.27024295  0.14254016     0.75770
C1305       C  0.50426702  0.22607507  0.10716905     0.78170
Cd1306     Cd  0.49278366  0.25781005  0.12498320     1.37460
O1307       O  0.47368795  0.25238090  0.15157836    -0.56820
O1308       O  0.49761392  0.22578522  0.12272836    -0.55630
C1309       C  0.47845942  0.28850160  0.10676791     0.78130
O1310       O  0.50611931  0.24116735  0.09977678    -0.58010
O1311       O  0.46325721  0.24568254  0.12547394    -0.56460
O1312       O  0.52117652  0.27246529  0.12606214    -0.56450
O1313       O  0.48026762  0.28792514  0.12364786    -0.55620
O1314       O  0.14472607  0.48279481  0.25068737    -0.56830
C1315       C  0.13740549  0.53283907  0.26648021     0.75800
O1316       O  0.09249317  0.51430422  0.23838518    -0.57990
C1317       C  0.13682000  0.47222544  0.24020527     0.75770
C1318       C  0.09833668  0.48762890  0.28427333     0.78170
Cd1319     Cd  0.11838317  0.50210448  0.25475738     1.37470
O1320       O  0.14523804  0.51801616  0.26519341    -0.56820
O1321       O  0.11442790  0.49229025  0.28596932    -0.55630
C1322       C  0.10097587  0.51747815  0.22402987     0.78130
O1323       O  0.09127726  0.49006007  0.26904031    -0.58010
O1324       O  0.12094208  0.53316421  0.26279227    -0.56460
O1325       O  0.12064046  0.47549537  0.23673463    -0.56450
O1326       O  0.11737794  0.51344980  0.22402305    -0.55620
O1327       O  0.96649195  0.73628675  0.10768252    -0.56830
C1328       C  0.99243502  0.78324629  0.11653450     0.75800
O1329       O  0.96248102  0.76289417  0.16006727    -0.57990
C1330       C  0.96742396  0.72079645  0.11440008     0.75770
C1331       C  0.01157613  0.73796308  0.15158611     0.78170
Cd1332     Cd  0.97976480  0.75127315  0.13400081     1.37460
O1333       O  0.98969579  0.76926529  0.10757583    -0.56820
O1334       O  0.01065457  0.74142645  0.13495163    -0.55630
C1335       C  0.94765199  0.76256393  0.15186570     0.78130
O1336       O  0.99748043  0.74065337  0.16053243    -0.58010
O1337       O  0.98909964  0.78227436  0.13313636    -0.56460
O1338       O  0.97406880  0.71944312  0.13000338    -0.56450
O1339       O  0.94794607  0.75662082  0.13607711    -0.55620
O1340       O  0.08053572  0.00807257  0.77280364    -0.56830
C1341       C  0.08856645  0.98961660  0.72216862     0.75800
O1342       O  0.13221445  0.01908020  0.74124494    -0.57990
C1343       C  0.08928265  0.01679416  0.78434566     0.75770
C1344       C  0.12559081  0.97227448  0.76672922     0.78170
Cd1345     Cd  0.10666452  0.00242847  0.75351419     1.37470
O1346       O  0.08020334  0.99208674  0.73667788    -0.56820
O1347       O  0.10943291  0.97180139  0.76197909    -0.55630
C1348       C  0.12286183  0.03261422  0.73737694     0.78130
O1349       O  0.13333234  0.98719529  0.76574619    -0.58010
O1350       O  0.10506495  0.99313205  0.72245452    -0.56460
O1351       O  0.10580839  0.01838536  0.78156651    -0.56450
O1352       O  0.10655240  0.03206520  0.74164233    -0.55620
O1353       O  0.70889328  0.10584887  0.98637192    -0.56830
C1354       C  0.75620106  0.11341380  0.01019399     0.75800
O1355       O  0.73154599  0.15853898  0.97808576    -0.57990
C1356       C  0.69572740  0.11486884  0.98079785     0.75770
C1357       C  0.71448217  0.15065151  0.02709273     0.78170
Cd1358     Cd  0.72602893  0.13190498  0.99618397     1.37460
O1359       O  0.74157133  0.10536577  0.00783084    -0.56820
O1360       O  0.71067011  0.13444395  0.02488377    -0.55630
C1361       C  0.73896288  0.15014594  0.96550552     0.78130
O1362       O  0.72336383  0.15832386  0.01492067    -0.58010
O1363       O  0.75666933  0.12966083  0.00577144    -0.56460
O1364       O  0.69668158  0.13153863  0.98273759    -0.56450
O1365       O  0.74018772  0.13343975  0.96707606    -0.55620
O1366       O  0.62416933  0.98274003  0.75043040    -0.56830
C1367       C  0.61379089  0.03318219  0.76314834     0.75800
O1368       O  0.57061699  0.01154053  0.73442210    -0.57990
C1369       C  0.61749026  0.97163785  0.73967668     0.75770
C1370       C  0.57995313  0.98771609  0.78367321     0.78170
Cd1371     Cd  0.59706107  0.00116600  0.75194459     1.37470
O1372       O  0.62284687  0.02093464  0.75597025    -0.56820
O1373       O  0.59502785  0.99516181  0.78365959    -0.55630
C1374       C  0.57997149  0.01715175  0.72139890     0.78130
O1375       O  0.57236380  0.98624407  0.76851150    -0.58010
O1376       O  0.59736690  0.03012685  0.76543801    -0.56460
O1377       O  0.60141129  0.97416123  0.73512471    -0.56450
O1378       O  0.59654673  0.01431929  0.72237532    -0.55620
O1379       O  0.75581569  0.59764794  0.00464146    -0.56830
C1380       C  0.70696584  0.60385220  0.01551670     0.75800
O1381       O  0.75217081  0.64888112  0.01635777    -0.57990
C1382       C  0.76547108  0.60196681  0.99148849     0.75770
C1383       C  0.71985709  0.64261033  0.97299635     0.78170
Cd1384     Cd  0.73633959  0.62353739  0.00210282     1.37460
O1385       O  0.71662141  0.59758371  0.00319462    -0.56820
O1386       O  0.72095882  0.62585747  0.97334155    -0.55630
C1387       C  0.74932777  0.64326520  0.03218628     0.78130
O1388       O  0.72632757  0.65081159  0.98627609    -0.58010
O1389       O  0.71050886  0.61937953  0.02086083    -0.56460
O1390       O  0.76200897  0.61646825  0.98355015    -0.56450
O1391       O  0.74128352  0.62858646  0.03365658    -0.55620
O1392       O  0.96610011  0.76710992  0.60442031    -0.56830
C1393       C  0.99281137  0.72159505  0.61242392     0.75800
O1394       O  0.99236870  0.76593859  0.65709500    -0.57990
C1395       C  0.96526824  0.78211159  0.61193281     0.75770
C1396       C  0.94623090  0.73708166  0.64890793     0.78170
Cd1397     Cd  0.97749817  0.75125432  0.63128192     1.37470
O1398       O  0.98574016  0.73443531  0.60392885    -0.56820
O1399       O  0.94613463  0.74354515  0.63322897    -0.55630
C1400       C  0.00758296  0.76634504  0.64974317     0.78130
O1401       O  0.96105254  0.73747882  0.65709088    -0.58010
O1402       O  0.99226245  0.72232063  0.62938458    -0.56460
O1403       O  0.97033868  0.78269654  0.62812858    -0.56450
O1404       O  0.00873208  0.75964769  0.63426004    -0.55620
O1405       O  0.48306950  0.72962850  0.40639959    -0.56830
C1406       C  0.50634204  0.77900964  0.39609161     0.75800
O1407       O  0.51030218  0.73658612  0.35315386    -0.57990
C1408       C  0.47862270  0.71610735  0.39736523     0.75770
C1409       C  0.46245086  0.76111633  0.36215753     0.78170
Cd1410     Cd  0.49365468  0.74688320  0.37969357     1.37460
O1411       O  0.50534771  0.76472171  0.40519575    -0.56820
O1412       O  0.46349039  0.75871573  0.37896544    -0.55630
C1413       C  0.52460829  0.73341214  0.36166701     0.78130
O1414       O  0.47591414  0.75647037  0.35308374    -0.58010
O1415       O  0.50194688  0.77797633  0.37975071    -0.56460
O1416       O  0.48199078  0.71677455  0.38076194    -0.56450
O1417       O  0.52457953  0.73681544  0.37828049    -0.55620
O1418       O  0.96133673  0.25864456  0.84949704    -0.56830
C1419       C  0.00939588  0.23709948  0.85857771     0.75800
O1420       O  0.99137605  0.26640768  0.90289513    -0.57990
C1421       C  0.94757473  0.26323207  0.85810828     0.75770
C1422       C  0.96462094  0.21890341  0.89357688     0.78170
Cd1423     Cd  0.97867688  0.25046385  0.87663282     1.37470
O1424       O  0.99618608  0.24290596  0.84965686    -0.56820
O1425       O  0.97092767  0.21922362  0.87785586    -0.55630
C1426       C  0.99339515  0.28097995  0.89454127     0.78130
O1427       O  0.96486449  0.23353683  0.90187688    -0.58010
O1428       O  0.00826132  0.23788179  0.87550349    -0.56460
O1429       O  0.94838914  0.26181191  0.87503113    -0.56450
O1430       O  0.98853448  0.28111847  0.87826416    -0.55620
O1431       O  0.38241056  0.99175549  0.26714535    -0.56830
C1432       C  0.37697100  0.01625511  0.22103510     0.75800
O1433       O  0.33064807  0.98642496  0.23910533    -0.57990
C1434       C  0.37449754  0.99083488  0.28209807     0.75770
C1435       C  0.33977596  0.03541952  0.26313434     0.78170
Cd1436     Cd  0.35664910  0.00351719  0.25068732     1.37470
O1437       O  0.38424683  0.01258884  0.23590504    -0.56820
O1438       O  0.35648393  0.03325290  0.26285740    -0.55630
C1439       C  0.33859335  0.97158433  0.23949549     0.78130
O1440       O  0.33044118  0.02250628  0.25762389    -0.58010
O1441       O  0.36040586  0.01342829  0.21967567    -0.56460
O1442       O  0.35836862  0.99587027  0.28231837    -0.56450
O1443       O  0.35459138  0.97185625  0.24485549    -0.55620
O1444       O  0.22789218  0.85675459  0.02765292    -0.56830
C1445       C  0.24446763  0.86309969  0.97727470     0.75800
O1446       O  0.21419134  0.90861648  0.99592835    -0.57990
C1447       C  0.21944705  0.86553008  0.03933811     0.75770
C1448       C  0.26109692  0.90010757  0.02282880     0.78170
Cd1449     Cd  0.23113555  0.88241873  0.00722759     1.37460
O1450       O  0.23301886  0.85621057  0.98760612    -0.56820
O1451       O  0.25792048  0.88379168  0.02527383    -0.55630
C1452       C  0.19969196  0.90015783  0.99426282     0.78130
O1453       O  0.25038440  0.90859094  0.01273637    -0.58010
O1454       O  0.24926221  0.87877305  0.98092023    -0.56460
O1455       O  0.21617382  0.88164799  0.03562488    -0.56450
O1456       O  0.20021220  0.88380756  0.99827899    -0.55620
O1457       O  0.21140554  0.39839276  0.00617309    -0.56830
C1458       C  0.26034110  0.39302055  0.98648452     0.75800
O1459       O  0.24346086  0.34665079  0.01645608    -0.57990
C1460       C  0.20065914  0.38962005  0.01586623     0.75770
C1461       C  0.21470298  0.35578662  0.97158788     0.78170
Cd1462     Cd  0.23142173  0.37312955  0.00107873     1.37470
O1463       O  0.25005613  0.39974658  0.99798051    -0.56820
O1464       O  0.21585379  0.37250116  0.97280667    -0.55630
C1465       C  0.24789926  0.35508344  0.03041888     0.78130
O1466       O  0.22194054  0.34668411  0.98399941    -0.58010
O1467       O  0.25715938  0.37712210  0.98206412    -0.56460
O1468       O  0.20442031  0.37343662  0.01850913    -0.56450
O1469       O  0.24468985  0.37156018  0.03067645    -0.55620
O1470       O  0.86886671  0.99100233  0.23542792    -0.56830
C1471       C  0.86027757  0.01468457  0.28361528     0.75800
O1472       O  0.81694508  0.02049050  0.24701255    -0.57990
C1473       C  0.86026908  0.98686465  0.22141618     0.75770
C1474       C  0.82516811  0.96915442  0.26630683     0.78170
Cd1475     Cd  0.84241753  0.00019360  0.25275741     1.37470
O1476       O  0.86868202  0.00604503  0.27184731    -0.56820
O1477       O  0.84157669  0.97239705  0.26825557    -0.55630
C1478       C  0.82631095  0.03127543  0.23789375     0.78130
O1479       O  0.81600947  0.98079922  0.25808249    -0.58010
O1480       O  0.84373604  0.01670277  0.28084021    -0.56460
O1481       O  0.84350849  0.98867185  0.22214878    -0.56450
O1482       O  0.84264869  0.02743428  0.23627007    -0.55620
O1483       O  0.24660846  0.60373732  0.51538367    -0.56830
C1484       C  0.20121492  0.61384115  0.48906920     0.75800
O1485       O  0.22422887  0.65725308  0.52310245    -0.57990
C1486       C  0.26114587  0.61153162  0.51882915     0.75770
C1487       C  0.24609496  0.64727502  0.47341620     0.78170
Cd1488     Cd  0.23143702  0.63081316  0.50479105     1.37470
O1489       O  0.21403557  0.60486123  0.49549279    -0.56820
O1490       O  0.24225862  0.63094570  0.47439644    -0.55630
C1491       C  0.21638676  0.64828894  0.53517658     0.78130
O1492       O  0.24307665  0.65642923  0.48729890    -0.58010
O1493       O  0.20247033  0.63060047  0.49011787    -0.56460
O1494       O  0.26170089  0.62810722  0.51595247    -0.56450
O1495       O  0.21579774  0.63164977  0.53306416    -0.55620
O1496       O  0.31505120  0.51556542  0.74282223    -0.56830
C1497       C  0.32232088  0.47012399  0.76669898     0.75800
O1498       O  0.36874020  0.48938647  0.73504145    -0.57990
C1499       C  0.32404964  0.52820317  0.73615263     0.75770
C1500       C  0.35905045  0.51649427  0.78174946     0.78170
Cd1501     Cd  0.34192610  0.49893826  0.75190464     1.37460
O1502       O  0.31478679  0.48178395  0.75706739    -0.56820
O1503       O  0.34259646  0.51821540  0.77836262    -0.55630
C1504       C  0.36008427  0.48501125  0.72114383     0.78130
O1505       O  0.36766592  0.50622266  0.77154095    -0.58010
O1506       O  0.33883291  0.47186139  0.76965487    -0.56460
O1507       O  0.34087238  0.52681510  0.73656168    -0.56450
O1508       O  0.34335951  0.48671773  0.72194456    -0.55620
O1509       O  0.71966696  0.40460526  0.49621531    -0.56830
C1510       C  0.76717223  0.39477625  0.51420670     0.75800
O1511       O  0.72797017  0.35101376  0.51889846    -0.57990
C1512       C  0.70654999  0.39690542  0.48899163     0.75770
C1513       C  0.75042372  0.36030450  0.46999626     0.78170
Cd1514     Cd  0.73647694  0.37738282  0.50086375     1.37460
O1515       O  0.75450970  0.40357516  0.50731089    -0.56820
O1516       O  0.75055668  0.37699797  0.47189409    -0.55630
C1517       C  0.72163998  0.36009054  0.53161441     0.78130
O1518       O  0.74337798  0.35124557  0.48248603    -0.58010
O1519       O  0.76534591  0.37805095  0.51490568    -0.56460
O1520       O  0.70768911  0.38034513  0.48638447    -0.56450
O1521       O  0.72271554  0.37678770  0.53000810    -0.55620
O1522       O  0.97137925  0.26874983  0.39790460    -0.56830
C1523       C  0.99462000  0.22009176  0.38811667     0.75800
O1524       O  0.96216886  0.24183731  0.34480759    -0.57990
C1525       C  0.96857328  0.28313829  0.38938674     0.75770
C1526       C  0.01160633  0.26615559  0.35417344     0.78170
Cd1527     Cd  0.98028053  0.25167484  0.37107394     1.37460
O1528       O  0.98730877  0.23207773  0.39738165    -0.56820
O1529       O  0.00912492  0.26565062  0.37097364    -0.55630
C1530       C  0.94821468  0.23920004  0.35399348     0.78130
O1531       O  0.99918322  0.25976807  0.34460226    -0.58010
O1532       O  0.99505070  0.22291012  0.37137166    -0.56460
O1533       O  0.97079309  0.28276086  0.37254263    -0.56450
O1534       O  0.94937496  0.24250565  0.37054156    -0.55620
O1535       O  0.46437116  0.23641090  0.60012584    -0.56830
C1536       C  0.48260886  0.28418954  0.60938413     0.75800
O1537       O  0.45331489  0.26337554  0.65364933    -0.57990
C1538       C  0.45820831  0.22288870  0.60818995     0.75770
C1539       C  0.50165175  0.23772749  0.64471008     0.78170
Cd1540     Cd  0.47069717  0.25278470  0.62751722     1.37460
O1541       O  0.47777013  0.27078279  0.60050448    -0.56820
O1542       O  0.49959892  0.23822372  0.62787684    -0.55630
C1543       C  0.43897459  0.26499123  0.64474780     0.78130
O1544       O  0.48947112  0.24473883  0.65401024    -0.58010
O1545       O  0.48147415  0.28302053  0.62628017    -0.56460
O1546       O  0.45762916  0.22329857  0.62517860    -0.56450
O1547       O  0.43958462  0.26025554  0.62853803    -0.55620
O1548       O  0.57631336  0.49992787  0.23035084    -0.56830
C1549       C  0.57854772  0.51800652  0.28115949     0.75800
O1550       O  0.62604456  0.48419636  0.26106647    -0.57990
C1551       C  0.58422274  0.48724048  0.22262958     0.75770
C1552       C  0.61906373  0.53056974  0.23804729     0.78170
Cd1553     Cd  0.59931264  0.50185365  0.25397309     1.37470
O1554       O  0.57152919  0.50630523  0.27126429    -0.56820
O1555       O  0.60416017  0.52550281  0.23198036    -0.55630
C1556       C  0.61773663  0.47198573  0.26932846     0.78130
O1557       O  0.62521641  0.52200158  0.25139981    -0.58010
O1558       O  0.59483343  0.52144200  0.27862387    -0.56460
O1559       O  0.59772942  0.48077790  0.23045749    -0.56450
O1560       O  0.60108312  0.47411069  0.27109620    -0.55620
C1561       C  0.01732303  0.31330622  0.92598716    -0.11280
C1562       C  0.01528728  0.32936818  0.91643994     0.05720
C1563       C  0.00619253  0.32916061  0.89971422    -0.06570
C1564       C  0.99880228  0.31332836  0.89348185    -0.07310
C1565       C  0.00079474  0.29725519  0.90293025    -0.01870
C1566       C  0.01042031  0.29724914  0.91932228     0.04950
N1567       N  0.01406523  0.28110615  0.92896332     0.67460
H1568       H  0.02460284  0.31314162  0.93858340     0.16360
H1569       H  0.99174551  0.31362210  0.88075665     0.16070
N1570       N  0.00437931  0.34473652  0.88862843     0.75160
O1571       O  0.03001561  0.27679992  0.93228430    -0.38290
O1572       O  0.00160500  0.27309672  0.93700804    -0.38230
O1573       O  0.01785116  0.35061462  0.88037127    -0.38940
O1574       O  0.98906250  0.34935118  0.88326863    -0.39000
C1575       C  0.09448257  0.36835752  0.89614708    -0.11280
C1576       C  0.08592128  0.35968445  0.91053434     0.05720
C1577       C  0.09248000  0.34291770  0.91630813    -0.06570
C1578       C  0.10740214  0.33558158  0.90804714    -0.07310
C1579       C  0.11613300  0.34421043  0.89381010    -0.01870
C1580       C  0.10963540  0.36096113  0.88786619     0.04950
N1581       N  0.11857488  0.37103053  0.87414411     0.67460
H1582       H  0.08971120  0.38124485  0.89165980     0.16360
H1583       H  0.11198269  0.32267565  0.91270607     0.16070
N1584       N  0.08389731  0.33272868  0.93015475     0.75160
O1585       O  0.10956874  0.37913670  0.86230108    -0.38290
O1586       O  0.13495653  0.37456808  0.87578607    -0.38230
O1587       O  0.06838601  0.32671503  0.92755731    -0.38940
O1588       O  0.09293342  0.32690364  0.94326709    -0.39000
C1589       C  0.18519039  0.34969615  0.93101008    -0.11280
C1590       C  0.19158102  0.33361926  0.92411054     0.05720
C1591       C  0.20490593  0.32409974  0.93361544    -0.06570
C1592       C  0.21159767  0.33114316  0.94973119    -0.07310
C1593       C  0.20553391  0.34754469  0.95623676    -0.01870
C1594       C  0.19175357  0.35663913  0.94703393     0.04950
N1595       N  0.18387367  0.37259117  0.95400499     0.67460
H1596       H  0.17455205  0.35673684  0.92409338     0.16360
H1597       H  0.22230531  0.32427113  0.95669442     0.16070
N1598       N  0.21254566  0.30802643  0.92668567     0.75160
O1599       O  0.17899539  0.38487069  0.94342815    -0.38290
O1600       O  0.17949032  0.37338992  0.97033844    -0.38230
O1601       O  0.21649168  0.30693526  0.91026182    -0.38940
O1602       O  0.21781912  0.29598478  0.93734702    -0.39000
C1603       C  0.08002435  0.04618496  0.82434263    -0.11280
C1604       C  0.06395945  0.03905100  0.83083593     0.05720
C1605       C  0.05585254  0.02487208  0.82149954    -0.06570
C1606       C  0.06433558  0.01786027  0.80631980    -0.07310
C1607       C  0.08070592  0.02470195  0.80023529    -0.01870
C1608       C  0.08849647  0.03915459  0.80936346     0.04950
N1609       N  0.10494355  0.04700570  0.80362990     0.67460
H1610       H  0.08635457  0.05719155  0.83120100     0.16360
H1611       H  0.05816450  0.00683732  0.79936253     0.16070
N1612       N  0.03953399  0.01694826  0.82753537     0.75160
O1613       O  0.10508496  0.06295380  0.79823398    -0.38290
O1614       O  0.11949894  0.03959187  0.80777881    -0.38230
O1615       O  0.02538340  0.02602282  0.82756121    -0.38940
O1616       O  0.03851135  0.00026776  0.82925988    -0.39000
C1617       C  0.13212442  0.23851716  0.85836450    -0.11280
C1618       C  0.13669679  0.23404942  0.84071242     0.05720
C1619       C  0.14817856  0.24541422  0.83078968    -0.06570
C1620       C  0.15419579  0.26121839  0.83876209    -0.07310
C1621       C  0.14915339  0.26592433  0.85621782    -0.01870
C1622       C  0.13817042  0.25429150  0.86624731     0.04950
N1623       N  0.13186191  0.25884915  0.88379946     0.67460
H1624       H  0.12320876  0.22992882  0.86590564     0.16360
H1625       H  0.16267950  0.27015059  0.83112841     0.16070
N1626       N  0.15440333  0.24108522  0.81304845     0.75160
O1627       O  0.11551568  0.25717514  0.88746437    -0.38290
O1628       O  0.14280893  0.26151212  0.89639819    -0.38230
O1629       O  0.14429726  0.23374013  0.80174381    -0.38940
O1630       O  0.16968718  0.24611096  0.80805432    -0.39000
C1631       C  0.09355624  0.13537342  0.86194420    -0.11280
C1632       C  0.08848354  0.13990741  0.84428684     0.05720
C1633       C  0.07499912  0.12977521  0.83581600    -0.06570
C1634       C  0.06649365  0.11611371  0.84533553    -0.07310
C1635       C  0.07131549  0.11162461  0.86305206    -0.01870
C1636       C  0.08510312  0.12145065  0.87146995     0.04950
N1637       N  0.09023472  0.11806714  0.88976936     0.67460
H1638       H  0.10362956  0.14322306  0.86870124     0.16360
H1639       H  0.05639930  0.10843060  0.83841092     0.16070
N1640       N  0.07009523  0.13271670  0.81736534     0.75160
O1641       O  0.10643637  0.11908569  0.89431990    -0.38290
O1642       O  0.07849029  0.11703441  0.90184034    -0.38230
O1643       O  0.08195098  0.13289416  0.80536286    -0.38940
O1644       O  0.05388419  0.13232522  0.81274184    -0.39000
C1645       C  0.03399203  0.21561224  0.85975297    -0.11280
C1646       C  0.02517116  0.22904220  0.85007491     0.05720
C1647       C  0.03126811  0.23374605  0.83268840    -0.06570
C1648       C  0.04625817  0.22500694  0.82564130    -0.07310
C1649       C  0.05537549  0.21201752  0.83570001    -0.01870
C1650       C  0.04876488  0.20684504  0.85271807     0.04950
N1651       N  0.05651768  0.19237846  0.86280250     0.67460
H1652       H  0.02900841  0.21148915  0.87278428     0.16360
H1653       H  0.05142870  0.22909212  0.81267917     0.16070
N1654       N  0.02320815  0.24793404  0.82249034     0.75160
O1655       O  0.05726645  0.19304037  0.87972677    -0.38290
O1656       O  0.06031041  0.17797529  0.85509496    -0.38230
O1657       O  0.01963589  0.26253141  0.82992455    -0.38940
O1658       O  0.02223994  0.24692791  0.80559841    -0.39000
C1659       C  0.91472890  0.28417889  0.82496040    -0.11280
C1660       C  0.89861091  0.28154065  0.83413335     0.05720
C1661       C  0.89864783  0.27181871  0.85047847    -0.06570
C1662       C  0.91488000  0.26627027  0.85789338    -0.07310
C1663       C  0.93110875  0.26956454  0.84917895    -0.01870
C1664       C  0.93102974  0.27842864  0.83233150     0.04950
N1665       N  0.94726674  0.28273925  0.82307930     0.67460
H1666       H  0.91479649  0.29174646  0.81251926     0.16360
H1667       H  0.91477259  0.25892120  0.87047100     0.16070
N1668       N  0.88237852  0.26712894  0.85953959     0.75160
O1669       O  0.94783303  0.28196482  0.80615964    -0.38290
O1670       O  0.95995292  0.29009481  0.83138058    -0.38230
O1671       O  0.86947133  0.26068809  0.85080284    -0.38940
O1672       O  0.88176089  0.26704972  0.87648352    -0.39000
C1673       C  0.95829461  0.40321495  0.91021948    -0.11280
C1674       C  0.95757387  0.42070227  0.90367837     0.05720
C1675       C  0.97316088  0.43135767  0.90425370    -0.06570
C1676       C  0.98923897  0.42382864  0.91064519    -0.07310
C1677       C  0.98992741  0.40623545  0.91708009    -0.01870
C1678       C  0.97418814  0.39574730  0.91671299     0.04950
N1679       N  0.97417239  0.37726881  0.92193764     0.67460
H1680       H  0.94645516  0.39496642  0.90952457     0.16360
H1681       H  0.00116127  0.43194818  0.91126257     0.16070
N1682       N  0.97272649  0.44993437  0.89943673     0.75160
O1683       O  0.96032853  0.37035743  0.92862318    -0.38290
O1684       O  0.98674702  0.36720817  0.91725102    -0.38230
O1685       O  0.95921943  0.45926046  0.90302685    -0.38940
O1686       O  0.98671482  0.45763016  0.89405725    -0.39000
C1687       C  0.89331374  0.37294514  0.85849516    -0.11280
C1688       C  0.88202738  0.38684678  0.86365240     0.05720
C1689       C  0.86335586  0.38497143  0.86117570    -0.06570
C1690       C  0.85658823  0.36923051  0.85354221    -0.07310
C1691       C  0.86803401  0.35568001  0.84776756    -0.01870
C1692       C  0.88660310  0.35735258  0.85082135     0.04950
N1693       N  0.89879210  0.34321716  0.84661083     0.67460
H1694       H  0.90756579  0.37416972  0.86064125     0.16360
H1695       H  0.84240042  0.36806733  0.85099623     0.16070
N1696       N  0.85123844  0.39927677  0.86491839     0.75160
O1697       O  0.91432994  0.34677106  0.84116571    -0.38290
O1698       O  0.89494455  0.32732359  0.85058046    -0.38230
O1699       O  0.85492061  0.41494480  0.85997261    -0.38940
O1700       O  0.83567527  0.39588776  0.87039086    -0.39000
C1701       C  0.89166982  0.47920307  0.80304473    -0.11280
C1702       C  0.87487503  0.47324714  0.79718235     0.05720
C1703       C  0.86602506  0.45975193  0.80702486    -0.06570
C1704       C  0.87370903  0.45328974  0.82288731    -0.07310
C1705       C  0.89017804  0.45963092  0.82915148    -0.01870
C1706       C  0.89935016  0.47276365  0.81909105     0.04950
N1707       N  0.91565700  0.48060384  0.82546061     0.67460
H1708       H  0.89834034  0.48975271  0.79569386     0.16360
H1709       H  0.86681284  0.44292023  0.83030386     0.16070
N1710       N  0.84945753  0.45218007  0.80098924     0.75160
O1711       O  0.92737589  0.48563425  0.81439456    -0.38290
O1712       O  0.91715348  0.48514524  0.84168314    -0.38230
O1713       O  0.84766482  0.44742408  0.78485847    -0.38940
O1714       O  0.83759226  0.44792347  0.81222601    -0.39000
C1715       C  0.81880159  0.22979942  0.83244179    -0.11280
C1716       C  0.80508540  0.23017986  0.84516526     0.05720
C1717       C  0.79831792  0.24686757  0.85060993    -0.06570
C1718       C  0.80575608  0.26260709  0.84364053    -0.07310
C1719       C  0.81990004  0.26218011  0.83132909    -0.01870
C1720       C  0.82617355  0.24542894  0.82542850     0.04950
N1721       N  0.84035068  0.24387290  0.81268727     0.67460
H1722       H  0.82408178  0.21718351  0.82795428     0.16360
H1723       H  0.80069891  0.27525796  0.84827218     0.16070
N1724       N  0.78392490  0.24819279  0.86310842     0.75160
O1725       O  0.85410496  0.23502296  0.81674830    -0.38290
O1726       O  0.83759815  0.24807209  0.79647106    -0.38230
O1727       O  0.78681044  0.24540118  0.87959661    -0.38940
O1728       O  0.76966464  0.25582311  0.85835386    -0.39000
C1729       C  0.76936089  0.17282508  0.93239372    -0.11280
C1730       C  0.75963347  0.17035645  0.91651676     0.05720
C1731       C  0.74221791  0.16307607  0.91714629    -0.06570
C1732       C  0.73545606  0.15763885  0.93379708    -0.07310
C1733       C  0.74559572  0.15918436  0.94949919    -0.01870
C1734       C  0.76262126  0.16721708  0.94902596     0.04950
N1735       N  0.77356445  0.16890387  0.96490105     0.67460
H1736       H  0.78262918  0.17851601  0.93167917     0.16360
H1737       H  0.72242653  0.15140752  0.93444783     0.16070
N1738       N  0.73110529  0.16125572  0.90138950     0.75160
O1739       O  0.79032365  0.16984518  0.96354577    -0.38290
O1740       O  0.76660898  0.17079852  0.98017732    -0.38230
O1741       O  0.73768485  0.15766704  0.88627958    -0.38940
O1742       O  0.71434008  0.16179256  0.90285933    -0.39000
C1743       C  0.97498066  0.08818705  0.92452852    -0.11280
C1744       C  0.96103298  0.09062774  0.91210291     0.05720
C1745       C  0.96380878  0.08561307  0.89402333    -0.06570
C1746       C  0.98033886  0.07836513  0.88896350    -0.07310
C1747       C  0.99448195  0.07655596  0.90129678    -0.01870
C1748       C  0.99152665  0.08114171  0.91944470     0.04950
N1749       N  0.00496161  0.07844127  0.93298490     0.67460
H1750       H  0.97297323  0.09171338  0.93845957     0.16360
H1751       H  0.98249228  0.07514787  0.87497812     0.16070
N1752       N  0.95067469  0.08899180  0.88034347     0.75160
O1753       O  0.00713576  0.08981383  0.94518494    -0.38290
O1754       O  0.01270378  0.06359209  0.93438848    -0.38230
O1755       O  0.94451470  0.10448837  0.87820580    -0.38940
O1756       O  0.94787778  0.07755630  0.86833283    -0.39000
C1757       C  0.85334904  0.12735767  0.89439989    -0.11280
C1758       C  0.86739511  0.13859329  0.89956136     0.05720
C1759       C  0.86597043  0.15709293  0.89619204    -0.06570
C1760       C  0.85025540  0.16394748  0.88871166    -0.07310
C1761       C  0.83593259  0.15289853  0.88411764    -0.01870
C1762       C  0.83743705  0.13430063  0.88700084     0.04950
N1763       N  0.82265971  0.12249292  0.88389391     0.67460
H1764       H  0.85430911  0.11324023  0.89724750     0.16360
H1765       H  0.84927065  0.17814010  0.88624961     0.16070
N1766       N  0.88046201  0.16908077  0.89988809     0.75160
O1767       O  0.82548428  0.10662474  0.87928049    -0.38290
O1768       O  0.80708946  0.12693113  0.88845037    -0.38230
O1769       O  0.89617814  0.16501227  0.89551161    -0.38940
O1770       O  0.87731291  0.18468206  0.90516059    -0.39000
C1771       C  0.94265995  0.18452978  0.92462978    -0.11280
C1772       C  0.94048191  0.17020676  0.91279981     0.05720
C1773       C  0.94675754  0.17203895  0.89496627    -0.06570
C1774       C  0.95499363  0.18779000  0.88950871    -0.07310
C1775       C  0.95702612  0.20222147  0.90117614    -0.01870
C1776       C  0.95096206  0.20043970  0.91910719     0.04950
N1777       N  0.95342753  0.21431282  0.93199597     0.67460
H1778       H  0.93812300  0.18328548  0.93838004     0.16360
H1779       H  0.95940991  0.18881982  0.87569646     0.16070
N1780       N  0.94469111  0.15822756  0.88197924     0.75160
O1781       O  0.94088548  0.21830184  0.94249111    -0.38290
O1782       O  0.96889649  0.22016467  0.93515255    -0.38230
O1783       O  0.92957579  0.15550607  0.87500949    -0.38940
O1784       O  0.95833357  0.15154182  0.87480399    -0.39000
C1785       C  0.89861628  0.77169745  0.16003984    -0.11280
C1786       C  0.89935791  0.78513086  0.17297485     0.05720
C1787       C  0.91611974  0.79021611  0.18004981    -0.06570
C1788       C  0.93170679  0.78220844  0.17341735    -0.07310
C1789       C  0.93092165  0.76929767  0.15987505    -0.01870
C1790       C  0.91407437  0.76385444  0.15339951     0.04950
N1791       N  0.91233336  0.75053402  0.13989157     0.67460
H1792       H  0.88585837  0.76757285  0.15458509     0.16360
H1793       H  0.94454718  0.78654078  0.17847561     0.16070
N1794       N  0.91772922  0.80419742  0.19294932     0.75160
O1795       O  0.90606126  0.73549813  0.14407752    -0.38290
O1796       O  0.91311474  0.75500276  0.12354098    -0.38230
O1797       O  0.91035294  0.80264994  0.20808674    -0.38940
O1798       O  0.92903031  0.81642566  0.19053161    -0.39000
C1799       C  0.86068726  0.89292990  0.14905440    -0.11280
C1800       C  0.87541179  0.89154961  0.13753572     0.05720
C1801       C  0.88229817  0.87456705  0.13337179    -0.06570
C1802       C  0.87431481  0.85947194  0.14119326    -0.07310
C1803       C  0.85997611  0.86085862  0.15316518    -0.01870
C1804       C  0.85275655  0.87780772  0.15697992     0.04950
N1805       N  0.83817526  0.88008619  0.16938765     0.67460
H1806       H  0.85565516  0.90603498  0.15224454     0.16360
H1807       H  0.87995899  0.84645899  0.13869335     0.16070
N1808       N  0.89775598  0.87229734  0.12209306     0.75160
O1809       O  0.83537610  0.89504398  0.17643932    -0.38290
O1810       O  0.82727795  0.86764548  0.17246001    -0.38230
O1811       O  0.90945896  0.88430067  0.12074062    -0.38940
O1812       O  0.90054780  0.85756861  0.11457534    -0.39000
C1813       C  0.89269617  0.96515305  0.18877213    -0.11280
C1814       C  0.88338761  0.96706388  0.17247199     0.05720
C1815       C  0.86683024  0.97610208  0.17243966    -0.06570
C1816       C  0.85993614  0.98270872  0.18847847    -0.07310
C1817       C  0.86903907  0.98051670  0.20483373    -0.01870
C1818       C  0.88573846  0.97176799  0.20489723     0.04950
N1819       N  0.89541431  0.96868501  0.22122972     0.67460
H1820       H  0.90532297  0.95815403  0.18909135     0.16360
H1821       H  0.84718532  0.98949241  0.18811250     0.16070
N1822       N  0.85677319  0.97879006  0.15627814     0.75160
O1823       O  0.89934923  0.95298111  0.22583567    -0.38290
O1824       O  0.90296128  0.98151577  0.22900649    -0.38230
O1825       O  0.84648923  0.96666182  0.15084491    -0.38940
O1826       O  0.85507705  0.99431202  0.14994593    -0.39000
C1827       C  0.87673869  0.10264294  0.98320382    -0.11280
C1828       C  0.89524631  0.10156590  0.98093784     0.05720
C1829       C  0.90588354  0.09390885  0.99478439    -0.06570
C1830       C  0.89746196  0.08767473  0.01055977    -0.07310
C1831       C  0.87889749  0.08854566  0.01264681    -0.01870
C1832       C  0.86840367  0.09622894  0.99878249     0.04950
N1833       N  0.84943216  0.09840011  0.00050811     0.67460
H1834       H  0.86861586  0.10845649  0.97261193     0.16360
H1835       H  0.90541538  0.08185491  0.02126015     0.16070
N1836       N  0.92489735  0.09157476  0.99293284     0.75160
O1837       O  0.84225049  0.11288229  0.99576860    -0.38290
O1838       O  0.83959021  0.08512200  0.00359550    -0.38230
O1839       O  0.93400016  0.10166632  0.98292541    -0.38940
O1840       O  0.93288579  0.07979113  0.00206042    -0.39000
C1841       C  0.86541383  0.98856997  0.08959273    -0.11280
C1842       C  0.88390278  0.98609308  0.09101564     0.05720
C1843       C  0.89530602  0.99996696  0.08524007    -0.06570
C1844       C  0.88808787  0.01613721  0.07905316    -0.07310
C1845       C  0.86967791  0.01889098  0.07814559    -0.01870
C1846       C  0.85820131  0.00488364  0.08357562     0.04950
N1847       N  0.83929681  0.00731623  0.08446807     0.67460
H1848       H  0.85653354  0.97822343  0.09442713     0.16360
H1849       H  0.89704499  0.02653179  0.07464641     0.16070
N1850       N  0.91438711  0.99784315  0.08523025     0.75160
O1851       O  0.82902044  0.99457589  0.08070851    -0.38290
O1852       O  0.83297076  0.02088529  0.09200555    -0.38230
O1853       O  0.92134573  0.98341820  0.08033170    -0.38940
O1854       O  0.92446277  0.01097931  0.08800858    -0.39000
C1855       C  0.78290948  0.11560608  0.02900592    -0.11280
C1856       C  0.77182075  0.10484447  0.01854301     0.05720
C1857       C  0.77539708  0.08642333  0.01730758    -0.06570
C1858       C  0.79002030  0.07928559  0.02676824    -0.07310
C1859       C  0.80121051  0.09017846  0.03710334    -0.01870
C1860       C  0.79729544  0.10852838  0.03852273     0.04950
N1861       N  0.80730187  0.12009570  0.05006064     0.67460
H1862       H  0.77993468  0.12963238  0.03042525     0.16360
H1863       H  0.79314555  0.06530085  0.02537830     0.16070
N1864       N  0.76503329  0.07501188  0.00590361     0.75160
O1865       O  0.81138439  0.13555460  0.04476227    -0.38290
O1866       O  0.80947074  0.11602963  0.06640325    -0.38230
O1867       O  0.76077754  0.08004926  0.99025471    -0.38940
O1868       O  0.76236929  0.05901378  0.01040651    -0.39000
C1869       C  0.83158104  0.11518077  0.10988677    -0.11280
C1870       C  0.83663062  0.09717896  0.11056263     0.05720
C1871       C  0.83337981  0.08715943  0.12635183    -0.06570
C1872       C  0.82490709  0.09530916  0.14088541    -0.07310
C1873       C  0.81961288  0.11319540  0.14020908    -0.01870
C1874       C  0.82268322  0.12327372  0.12437987     0.04950
N1875       N  0.81568861  0.14101814  0.12219669     0.67460
H1876       H  0.83344555  0.12258504  0.09749604     0.16360
H1877       H  0.82260268  0.08763414  0.15303608     0.16070
N1878       N  0.83874393  0.06881469  0.12795075     0.75160
O1879       O  0.82249979  0.15152715  0.11083063    -0.38290
O1880       O  0.80124406  0.14539726  0.12962780    -0.38230
O1881       O  0.85297761  0.06348908  0.12074979    -0.38940
O1882       O  0.83025852  0.05829220  0.13808979    -0.39000
C1883       C  0.79604270  0.06958668  0.22287658    -0.11280
C1884       C  0.80855098  0.08053641  0.21418125     0.05720
C1885       C  0.82638604  0.07478593  0.21287383    -0.06570
C1886       C  0.83148776  0.05872802  0.22060100    -0.07310
C1887       C  0.81919449  0.04773510  0.22952171    -0.01870
C1888       C  0.80109327  0.05312417  0.23040435     0.04950
N1889       N  0.78766057  0.04213847  0.23851814     0.67460
H1890       H  0.78224562  0.07376903  0.22371322     0.16360
H1891       H  0.84535946  0.05487207  0.21945827     0.16070
N1892       N  0.83951966  0.08486138  0.20332215     0.75160
O1893       O  0.77637486  0.04898218  0.24893943    -0.38290
O1894       O  0.78480798  0.02674796  0.23249990    -0.38230
O1895       O  0.85136078  0.09324271  0.21186627    -0.38940
O1896       O  0.84068003  0.08348841  0.18648847    -0.39000
C1897       C  0.81058422  0.16759408  0.26811786    -0.11280
C1898       C  0.82825947  0.17376203  0.26864573     0.05720
C1899       C  0.83800222  0.17465900  0.25237692    -0.06570
C1900       C  0.83013026  0.16874373  0.23634862    -0.07310
C1901       C  0.81278938  0.16170509  0.23605900    -0.01870
C1902       C  0.80264905  0.16185732  0.25209331     0.04950
N1903       N  0.78424312  0.15652420  0.25237906     0.67460
H1904       H  0.80269767  0.16742869  0.28028397     0.16360
H1905       H  0.83807425  0.16871784  0.22421884     0.16070
N1906       N  0.85614610  0.18064410  0.25188556     0.75160
O1907       O  0.77823200  0.14771355  0.26553342    -0.38290
O1908       O  0.77344321  0.16291146  0.24099929    -0.38230
O1909       O  0.86797937  0.17217629  0.26048327    -0.38940
O1910       O  0.86085057  0.19195022  0.24021174    -0.39000
C1911       C  0.89950343  0.22758426  0.34738541    -0.11280
C1912       C  0.90005279  0.21666451  0.33218611     0.05720
C1913       C  0.91652713  0.21424341  0.32329066    -0.06570
C1914       C  0.93205316  0.22207834  0.33037162    -0.07310
C1915       C  0.93148564  0.23230417  0.34608079    -0.01870
C1916       C  0.91490030  0.23524379  0.35442877     0.04950
N1917       N  0.91337430  0.24591088  0.37017184     0.67460
H1918       H  0.88700406  0.22988394  0.35426365     0.16360
H1919       H  0.94469770  0.21981824  0.32376639     0.16070
N1920       N  0.91795297  0.20342680  0.30759459     0.75160
O1921       O  0.90632617  0.26110864  0.36900278    -0.38290
O1922       O  0.91540769  0.23878949  0.38544332    -0.38230
O1923       O  0.90986440  0.20794055  0.29338796    -0.38940
O1924       O  0.92987788  0.19161519  0.30683392    -0.39000
C1925       C  0.86873493  0.11878899  0.37287170    -0.11280
C1926       C  0.87951319  0.10757445  0.36246994     0.05720
C1927       C  0.88202869  0.11181918  0.34406626    -0.06570
C1928       C  0.87495486  0.12759427  0.33700668    -0.07310
C1929       C  0.86484236  0.13924826  0.34747744    -0.01870
C1930       C  0.86146817  0.13465346  0.36566000     0.04950
N1931       N  0.85164677  0.14622915  0.37725594     0.67460
H1932       H  0.86662861  0.11562979  0.38692408     0.16360
H1933       H  0.87715627  0.13062419  0.32293213     0.16070
N1934       N  0.89121837  0.10006176  0.33210639     0.75160
O1935       O  0.84110649  0.13973143  0.38875181    -0.38290
O1936       O  0.85559580  0.16252183  0.37807960    -0.38230
O1937       O  0.88662255  0.08394839  0.33114918    -0.38940
O1938       O  0.90166441  0.10633054  0.32039473    -0.39000
C1939       C  0.85944207  0.03452872  0.30995535    -0.11280
C1940       C  0.86898466  0.02210669  0.29984484     0.05720
C1941       C  0.88597267  0.01655031  0.30604770    -0.06570
C1942       C  0.89292649  0.02352003  0.32205763    -0.07310
C1943       C  0.88326681  0.03583815  0.33222571    -0.01870
C1944       C  0.86619091  0.04125503  0.32604167     0.04950
N1945       N  0.85538871  0.05355290  0.33580194     0.67460
H1946       H  0.84636751  0.03890247  0.30552153     0.16360
H1947       H  0.90594301  0.01912737  0.32663413     0.16070
N1948       N  0.89612101  0.00345939  0.29668669     0.75160
O1949       O  0.85023489  0.06770588  0.32818905    -0.38290
O1950       O  0.84748409  0.04832903  0.34982285    -0.38230
O1951       O  0.90337308  0.00744777  0.28192555    -0.38940
O1952       O  0.90065557  0.98930658  0.30469034    -0.39000
C1953       C  0.30878905  0.93691406  0.21708658    -0.11280
C1954       C  0.31744102  0.92116331  0.22238625     0.05720
C1955       C  0.33226081  0.92219637  0.23404615    -0.06570
C1956       C  0.33829197  0.93873339  0.23988157    -0.07310
C1957       C  0.33009013  0.95459497  0.23417299    -0.01870
C1958       C  0.31495841  0.95361085  0.22278786     0.04950
N1959       N  0.30626106  0.96928973  0.21611776     0.67460
H1960       H  0.29749446  0.93630530  0.20799319     0.16360
H1961       H  0.34980200  0.93912104  0.24871554     0.16070
N1962       N  0.34144453  0.90657961  0.24007703     0.75160
O1963       O  0.30410199  0.97137564  0.19941450    -0.38290
O1964       O  0.29775229  0.97908871  0.22677385    -0.38230
O1965       O  0.35429927  0.90064983  0.23101099    -0.38940
O1966       O  0.33919602  0.90105170  0.25594878    -0.39000
C1967       C  0.35191378  0.89190804  0.12484720    -0.11280
C1968       C  0.34328016  0.90666030  0.11700271     0.05720
C1969       C  0.32695515  0.91248088  0.12441205    -0.06570
C1970       C  0.32011107  0.90400048  0.13959729    -0.07310
C1971       C  0.32878649  0.88950418  0.14777031    -0.01870
C1972       C  0.34500197  0.88338567  0.14028167     0.04950
N1973       N  0.35502788  0.86921549  0.14845331     0.67460
H1974       H  0.36443979  0.88735327  0.11932167     0.16360
H1975       H  0.30751536  0.90871273  0.14483743     0.16070
N1976       N  0.31666398  0.92654739  0.11638364     0.75160
O1977       O  0.36237680  0.85768787  0.13871425    -0.38290
O1978       O  0.35931316  0.87006439  0.16483160    -0.38230
O1979       O  0.31094956  0.92497180  0.10051354    -0.38940
O1980       O  0.31052744  0.93879341  0.12607945    -0.39000
C1981       C  0.28766032  0.91948729  0.02019835    -0.11280
C1982       C  0.27683490  0.90855999  0.03095780     0.05720
C1983       C  0.28167998  0.90534077  0.04902932    -0.06570
C1984       C  0.29735551  0.91279682  0.05576181    -0.07310
C1985       C  0.30854573  0.92317008  0.04489444    -0.01870
C1986       C  0.30363926  0.92670463  0.02686474     0.04950
N1987       N  0.31519160  0.93625549  0.01480673     0.67460
H1988       H  0.28398307  0.92186795  0.00629837     0.16360
H1989       H  0.30123484  0.90980443  0.06948507     0.16070
N1990       N  0.27087294  0.89475744  0.06085056     0.75160
O1991       O  0.31651912  0.93146013  0.99865188    -0.38290
O1992       O  0.32241306  0.95062832  0.01956623    -0.38230
O1993       O  0.26947099  0.87824693  0.05829664    -0.38940
O1994       O  0.26652613  0.90092754  0.07593340    -0.39000
C1995       C  0.96242596  0.92779124  0.09002395    -0.11280
C1996       C  0.95646237  0.92401915  0.10752728     0.05720
C1997       C  0.96784898  0.91436069  0.11929215    -0.06570
C1998       C  0.98493465  0.90919984  0.11336990    -0.07310
C1999       C  0.99075453  0.91266651  0.09576266    -0.01870
C2000       C  0.97940782  0.92237388  0.08399324     0.04950
N2001       N  0.98504368  0.92729547  0.06615152     0.67460
H2002       H  0.95386348  0.93536455  0.08106005     0.16360
H2003       H  0.99330896  0.90128508  0.12221836     0.16070
N2004       N  0.96185754  0.90844685  0.13668839     0.75160
O2005       O  0.97361918  0.93038298  0.05402860    -0.38290
O2006       O  0.00123573  0.93065244  0.06297641    -0.38230
O2007       O  0.94621709  0.90252594  0.13865964    -0.38940
O2008       O  0.97292511  0.90643378  0.14935397    -0.39000
C2009       C  0.01026210  0.81050459  0.11979661    -0.11280
C2010       C  0.99987244  0.79976131  0.10857597     0.05720
C2011       C  0.99766044  0.80472717  0.09030673    -0.06570
C2012       C  0.00594792  0.82033671  0.08385411    -0.07310
C2013       C  0.01611794  0.83118772  0.09526029    -0.01870
C2014       C  0.01864098  0.82585248  0.11336648     0.04950
N2015       N  0.03031582  0.83534845  0.12524588     0.67460
H2016       H  0.01250697  0.80655602  0.13365148     0.16360
H2017       H  0.00379196  0.82442617  0.07003520     0.16070
N2018       N  0.98641207  0.79474250  0.07840336     0.75160
O2019       O  0.02582357  0.83789074  0.14134901    -0.38290
O2020       O  0.04617081  0.83854471  0.12057134    -0.38230
O2021       O  0.97119830  0.78962788  0.08350828    -0.38940
O2022       O  0.99045251  0.79339598  0.06202412    -0.39000
C2023       C  0.23885963  0.86543020  0.17223308    -0.11280
C2024       C  0.25022456  0.85277833  0.18021416     0.05720
C2025       C  0.24487463  0.83472336  0.18065549    -0.06570
C2026       C  0.22850495  0.82982856  0.17279400    -0.07310
C2027       C  0.21722574  0.84245503  0.16463300    -0.01870
C2028       C  0.22269939  0.86047444  0.16399525     0.04950
N2029       N  0.21294109  0.87358955  0.15378892     0.67460
H2030       H  0.24318009  0.87916228  0.17135571     0.16360
H2031       H  0.22438518  0.81602008  0.17327601     0.16070
N2032       N  0.25554401  0.82130745  0.18941925     0.75160
O2033       O  0.21297831  0.88962655  0.15868040    -0.38290
O2034       O  0.20701699  0.86987322  0.13837274    -0.38230
O2035       O  0.26326602  0.82458283  0.20412077    -0.38940
O2036       O  0.25543378  0.80553699  0.18372205    -0.39000
C2037       C  0.12118085  0.86283130  0.10511287    -0.11280
C2038       C  0.11987441  0.85308220  0.12122794     0.05720
C2039       C  0.10298453  0.85159931  0.12966088    -0.06570
C2040       C  0.08801210  0.85986335  0.12154619    -0.07310
C2041       C  0.08927589  0.86898226  0.10505148    -0.01870
C2042       C  0.10616512  0.87055864  0.09684399     0.04950
N2043       N  0.10838992  0.87982039  0.08009151     0.67460
H2044       H  0.13398686  0.86383613  0.09845530     0.16360
H2045       H  0.07506042  0.85856117  0.12780827     0.16070
N2046       N  0.10038069  0.84080936  0.14551503     0.75160
O2047       O  0.12124425  0.89049260  0.07810386    -0.38290
O2048       O  0.09960060  0.87511385  0.06647005    -0.38230
O2049       O  0.11237600  0.83949900  0.15736526    -0.38940
O2050       O  0.08551079  0.83341337  0.14830761    -0.39000
C2051       C  0.20003187  0.86021885  0.08572764    -0.11280
C2052       C  0.19662489  0.84185703  0.08651793     0.05720
C2053       C  0.20247217  0.83098687  0.07226692    -0.06570
C2054       C  0.21082041  0.83891403  0.05736306    -0.07310
C2055       C  0.21329081  0.85741552  0.05630798    -0.01870
C2056       C  0.20847188  0.86806739  0.07104211     0.04950
N2057       N  0.21238829  0.88676837  0.07158460     0.67460
H2058       H  0.19637192  0.86867851  0.09683636     0.16360
H2059       H  0.21458488  0.83063328  0.04614996     0.16070
N2060       N  0.19953319  0.81214301  0.07225516     0.75160
O2061       O  0.20123340  0.89745037  0.07816227    -0.38290
O2062       O  0.22792318  0.89224040  0.06810093    -0.38230
O2063       O  0.18384798  0.80611001  0.07315623    -0.38940
O2064       O  0.21203726  0.80183587  0.06785227    -0.39000
C2065       C  0.13977879  0.74340729  0.14825868    -0.11280
C2066       C  0.14393494  0.73810244  0.16588594     0.05720
C2067       C  0.15408423  0.74956136  0.17691267    -0.06570
C2068       C  0.15880713  0.76650091  0.17031473    -0.07310
C2069       C  0.15399189  0.77211519  0.15293009    -0.01870
C2070       C  0.14439087  0.76035916  0.14171508     0.04950
N2071       N  0.13798150  0.76581225  0.12429531     0.67460
H2072       H  0.13163618  0.73480671  0.13997162     0.16360
H2073       H  0.16659319  0.77531450  0.17870524     0.16070
N2074       N  0.16005366  0.74408367  0.19452374     0.75160
O2075       O  0.13673449  0.75459875  0.11182077    -0.38290
O2076       O  0.13090098  0.78091467  0.12216267    -0.38230
O2077       O  0.16353788  0.72795216  0.19778988    -0.38940
O2078       O  0.16396009  0.75556127  0.20618580    -0.39000
C2079       C  0.04439415  0.73531114  0.15045584    -0.11280
C2080       C  0.02855257  0.73150993  0.15972435     0.05720
C2081       C  0.02957738  0.72201412  0.17622912    -0.06570
C2082       C  0.04632985  0.71627002  0.18267985    -0.07310
C2083       C  0.06199749  0.71944312  0.17288277    -0.01870
C2084       C  0.06102776  0.72967348  0.15687898     0.04950
N2085       N  0.07679396  0.73478750  0.14715044     0.67460
H2086       H  0.04390514  0.74308995  0.13815409     0.16360
H2087       H  0.04696866  0.70830880  0.19485429     0.16070
N2088       N  0.01385974  0.71710480  0.18605141     0.75160
O2089       O  0.07650834  0.73559616  0.13020829    -0.38290
O2090       O  0.09022203  0.74073254  0.15544429    -0.38230
O2091       O  0.00114858  0.70936957  0.17815426    -0.38940
O2092       O  0.01397448  0.71756942  0.20299599    -0.39000
C2093       C  0.09500062  0.61139870  0.15904344    -0.11280
C2094       C  0.08482363  0.61285200  0.14323510     0.05720
C2095       C  0.08297884  0.62964160  0.13471648    -0.06570
C2096       C  0.09145219  0.64451299  0.14238025    -0.07310
C2097       C  0.10103823  0.64312895  0.15856844    -0.01870
C2098       C  0.10326361  0.62627728  0.16680726     0.04950
N2099       N  0.11394144  0.62400107  0.18281751     0.67460
H2100       H  0.09650866  0.59845787  0.16537368     0.16360
H2101       H  0.08945421  0.65754690  0.13640095     0.16070
N2102       N  0.07160528  0.63216707  0.11925308     0.75160
O2103       O  0.11169964  0.61058671  0.19286240    -0.38290
O2104       O  0.12688043  0.63427563  0.18599107    -0.38230
O2105       O  0.05767263  0.62293863  0.11728747    -0.38940
O2106       O  0.07417395  0.64516322  0.10874080    -0.39000
C2107       C  0.09935459  0.52046140  0.19105498    -0.11280
C2108       C  0.09228030  0.52499333  0.20781252     0.05720
C2109       C  0.07690639  0.53590075  0.20852895    -0.06570
C2110       C  0.06898119  0.54181870  0.19242473    -0.07310
C2111       C  0.07635299  0.53757235  0.17570351    -0.01870
C2112       C  0.09151724  0.52639734  0.17502605     0.04950
N2113       N  0.09884350  0.52052568  0.15825242     0.67460
H2114       H  0.11084308  0.51175270  0.19038785     0.16360
H2115       H  0.05761925  0.55069340  0.19299924     0.16070
N2116       N  0.06985908  0.54204513  0.22529993     0.75160
O2117       O  0.11548076  0.51856498  0.15660244    -0.38290
O2118       O  0.08866544  0.51499098  0.14596017    -0.38230
O2119       O  0.08020232  0.54833172  0.23706759    -0.38940
O2120       O  0.05324126  0.54394385  0.22717278    -0.39000
C2121       C  0.82389637  0.73961824  0.14169251    -0.11280
C2122       C  0.80944422  0.73138561  0.15023745     0.05720
C2123       C  0.80055110  0.74032679  0.16430122    -0.06570
C2124       C  0.80672780  0.75719543  0.16959161    -0.07310
C2125       C  0.82141913  0.76525664  0.16123535    -0.01870
C2126       C  0.83012223  0.75638164  0.14703610     0.04950
N2127       N  0.84577278  0.76363553  0.13851914     0.67460
H2128       H  0.83058643  0.73275254  0.13088353     0.16360
H2129       H  0.80035094  0.76390358  0.18068408     0.16070
N2130       N  0.78530172  0.73273233  0.17324593     0.75160
O2131       O  0.85768994  0.75337304  0.13263133    -0.38290
O2132       O  0.84695644  0.78006308  0.13517081    -0.38230
O2133       O  0.78413900  0.71617845  0.17582269    -0.38940
O2134       O  0.77364243  0.74272968  0.18003876    -0.39000
C2135       C  0.75429439  0.65752616  0.08047621    -0.11280
C2136       C  0.77066014  0.66649634  0.07996705     0.05720
C2137       C  0.77924432  0.66931090  0.06327899    -0.06570
C2138       C  0.77127272  0.66268876  0.04757817    -0.07310
C2139       C  0.75533349  0.65292151  0.04828732    -0.01870
C2140       C  0.74638772  0.65090009  0.06487921     0.04950
N2141       N  0.72923027  0.64240710  0.06614511     0.67460
H2142       H  0.74753680  0.65572339  0.09321130     0.16360
H2143       H  0.77822664  0.66406166  0.03490869     0.16070
N2144       N  0.79655541  0.67747845  0.06208766     0.75160
O2145       O  0.72521033  0.63350437  0.07999783    -0.38290
O2146       O  0.71721810  0.64586770  0.05472285    -0.38230
O2147       O  0.80871796  0.67321666  0.07305726    -0.38940
O2148       O  0.80059149  0.68663929  0.04841482    -0.39000
C2149       C  0.97529097  0.57671926  0.09688770    -0.11280
C2150       C  0.97262942  0.59520294  0.09636630     0.05720
C2151       C  0.98650911  0.60653615  0.10219489    -0.06570
C2152       C  0.00293953  0.59928069  0.10742506    -0.07310
C2153       C  0.00576647  0.58089470  0.10778784    -0.01870
C2154       C  0.99179506  0.56933735  0.10240597     0.04950
N2155       N  0.99432944  0.55035970  0.10154297     0.67460
H2156       H  0.96471701  0.56806580  0.09223036     0.16360
H2157       H  0.01345757  0.60807872  0.11197713     0.16070
N2158       N  0.98377781  0.62534209  0.10394484     0.75160
O2159       O  0.98104683  0.54004581  0.10210990    -0.38290
O2160       O  0.00948479  0.54390338  0.09817540    -0.38230
O2161       O  0.96972226  0.63102583  0.11120230    -0.38940
O2162       O  0.99651212  0.63600131  0.10120240    -0.39000
C2163       C  0.85903343  0.63148671  0.09518621    -0.11280
C2164       C  0.87520318  0.63368641  0.10438212     0.05720
C2165       C  0.87542426  0.64312503  0.12080718    -0.06570
C2166       C  0.85934941  0.65024455  0.12738512    -0.07310
C2167       C  0.84331937  0.64853686  0.11781146    -0.01870
C2168       C  0.84304987  0.63864417  0.10170455     0.04950
N2169       N  0.82676651  0.63583544  0.09177078     0.67460
H2170       H  0.85895996  0.62437517  0.08257824     0.16360
H2171       H  0.85950545  0.65800044  0.13958918     0.16070
N2172       N  0.89182379  0.64691572  0.13017897     0.75160
O2173       O  0.82721142  0.63361721  0.07498523    -0.38290
O2174       O  0.81215562  0.63367173  0.09988451    -0.38230
O2175       O  0.90435379  0.63573333  0.13066185    -0.38940
O2176       O  0.89333043  0.66098755  0.13920641    -0.39000
C2177       C  0.96341923  0.67399101  0.09653064    -0.11280
C2178       C  0.94580981  0.67389899  0.09017720     0.05720
C2179       C  0.93555815  0.68968977  0.09080521    -0.06570
C2180       C  0.94348959  0.70521382  0.09769718    -0.07310
C2181       C  0.96090138  0.70503396  0.10470948    -0.01870
C2182       C  0.97111982  0.68929509  0.10387649     0.04950
N2183       N  0.98928066  0.68863446  0.11022808     0.67460
H2184       H  0.97126061  0.66196626  0.09574400     0.16360
H2185       H  0.93563715  0.71725423  0.09873373     0.16070
N2186       N  0.91700522  0.69005914  0.08559964     0.75160
O2187       O  0.99567054  0.67427263  0.11632953    -0.38290
O2188       O  0.99951916  0.70181801  0.10813892    -0.38230
O2189       O  0.90734101  0.67639588  0.08723853    -0.38940
O2190       O  0.90969041  0.70460177  0.08128202    -0.39000
C2191       C  0.13666726  0.92413911  0.77491001    -0.11280
C2192       C  0.14939108  0.92522167  0.78862846     0.05720
C2193       C  0.15580753  0.94207449  0.79399421    -0.06570
C2194       C  0.14832570  0.95743174  0.78612012    -0.07310
C2195       C  0.13466816  0.95615527  0.77322951    -0.01870
C2196       C  0.12918925  0.93929035  0.76729294     0.04950
N2197       N  0.11574567  0.93723116  0.75378798     0.67460
H2198       H  0.13188878  0.91137007  0.77054312     0.16360
H2199       H  0.15270780  0.97040909  0.79056346     0.16070
N2200       N  0.16885626  0.94394972  0.80803246     0.75160
O2201       O  0.12022761  0.93288334  0.73810746    -0.38290
O2202       O  0.09960553  0.93594529  0.75838305    -0.38230
O2203       O  0.18310005  0.93503988  0.80765543    -0.38940
O2204       O  0.16752555  0.95648326  0.81913391    -0.39000
C2205       C  0.07277364  0.89760770  0.99796993    -0.11280
C2206       C  0.06814495  0.91471788  0.99194744     0.05720
C2207       C  0.05674253  0.92524776  0.00263287    -0.06570
C2208       C  0.05098318  0.91858932  0.01941958    -0.07310
C2209       C  0.05591975  0.90158607  0.02563719    -0.01870
C2210       C  0.06709251  0.89092368  0.01473576     0.04950
N2211       N  0.07377644  0.87389332  0.02076828     0.67460
H2212       H  0.08188689  0.88979458  0.98997895     0.16360
H2213       H  0.04220208  0.92658530  0.02759188     0.16070
N2214       N  0.05043017  0.94234415  0.99645323     0.75160
O2215       O  0.07938684  0.86274911  0.00951708    -0.38290
O2216       O  0.07643194  0.87082903  0.03723816    -0.38230
O2217       O  0.04822011  0.94537202  0.97989184    -0.38940
O2218       O  0.04496851  0.95369804  0.00756151    -0.39000
C2219       C  0.06346876  0.99086029  0.93153455    -0.11280
C2220       C  0.08093947  0.98549028  0.92763833     0.05720
C2221       C  0.09200650  0.99678594  0.91720206    -0.06570
C2222       C  0.08532647  0.01329926  0.91126869    -0.07310
C2223       C  0.06770873  0.01845621  0.91479158    -0.01870
C2224       C  0.05670754  0.00725397  0.92535674     0.04950
N2225       N  0.03889336  0.01245894  0.93025146     0.67460
H2226       H  0.05513630  0.98230979  0.93975137     0.16360
H2227       H  0.09350884  0.02162191  0.90266400     0.16070
N2228       N  0.10939780  0.99120541  0.91130290     0.75160
O2229       O  0.02736077  0.00081091  0.93410081    -0.38290
O2230       O  0.03517438  0.02862317  0.93274322    -0.38230
O2231       O  0.11203466  0.97530817  0.90666447    -0.38940
O2232       O  0.12132033  0.00263650  0.90805014    -0.39000
C2233       C  0.10837281  0.89686721  0.88730484    -0.11280
C2234       C  0.11867524  0.90896922  0.89725933     0.05720
C2235       C  0.13614195  0.91299974  0.89124336    -0.06570
C2236       C  0.14251080  0.90546127  0.87540724    -0.07310
C2237       C  0.13222961  0.89356933  0.86524584    -0.01870
C2238       C  0.11482187  0.88928780  0.87128451     0.04950
N2239       N  0.10319841  0.87805340  0.86104804     0.67460
H2240       H  0.09494189  0.89377018  0.89164433     0.16360
H2241       H  0.15597406  0.90870347  0.87125525     0.16070
N2242       N  0.14795510  0.92422896  0.90128098     0.75160
O2243       O  0.09336596  0.86688753  0.86899640    -0.38290
O2244       O  0.10035707  0.88144045  0.84465776    -0.38230
O2245       O  0.15225989  0.91997585  0.91714653    -0.38940
O2246       O  0.15654768  0.93638322  0.89333702    -0.39000
C2247       C  0.16530761  0.93096812  0.97220747    -0.11280
C2248       C  0.14978223  0.92073361  0.97434282     0.05720
C2249       C  0.15074819  0.90454120  0.98396054    -0.06570
C2250       C  0.16705238  0.89860708  0.99066758    -0.07310
C2251       C  0.18277806  0.90842454  0.98810453    -0.01870
C2252       C  0.18180324  0.92503973  0.97903925     0.04950
N2253       N  0.19734658  0.93573652  0.97604335     0.67460
H2254       H  0.16472383  0.94341544  0.96480323     0.16360
H2255       H  0.16735660  0.88599895  0.99781114     0.16070
N2256       N  0.13525633  0.89385451  0.98702382     0.75160
O2257       O  0.20086567  0.94120913  0.96038297    -0.38290
O2258       O  0.20535902  0.94257041  0.98923022    -0.38230
O2259       O  0.13258282  0.88021274  0.97762282    -0.38940
O2260       O  0.12573828  0.89655752  0.00067400    -0.39000
C2261       C  0.34606884  0.82194287  0.25790479    -0.11280
C2262       C  0.33978216  0.82761628  0.27468652     0.05720
C2263       C  0.32516750  0.83951302  0.27515068    -0.06570
C2264       C  0.31713502  0.84510764  0.25907342    -0.07310
C2265       C  0.32358155  0.83978238  0.24224906    -0.01870
C2266       C  0.33810884  0.82774238  0.24171328     0.04950
N2267       N  0.34470844  0.82093831  0.22503870     0.67460
H2268       H  0.35706338  0.81262204  0.25736826     0.16360
H2269       H  0.30632515  0.85462882  0.25980840     0.16070
N2270       N  0.31898422  0.84704030  0.29166132     0.75160
O2271       O  0.36123054  0.81849308  0.22296868    -0.38290
O2272       O  0.33398524  0.81469391  0.21360057    -0.38230
O2273       O  0.32972353  0.85538289  0.30161750    -0.38940
O2274       O  0.30245579  0.84830444  0.29456460    -0.39000
C2275       C  0.42971880  0.78462842  0.33043714    -0.11280
C2276       C  0.41378800  0.78279074  0.34012342     0.05720
C2277       C  0.41390433  0.77316129  0.35652643    -0.06570
C2278       C  0.43001068  0.76645021  0.36323313    -0.07310
C2279       C  0.44608743  0.76870747  0.35391471    -0.01870
C2280       C  0.44595092  0.77795003  0.33725105     0.04950
N2281       N  0.46213526  0.78174185  0.32768147     0.67460
H2282       H  0.42973434  0.79225299  0.31803089     0.16360
H2283       H  0.42987930  0.75902575  0.37576416     0.16070
N2284       N  0.39777089  0.76965863  0.36634196     0.75160
O2285       O  0.46221988  0.78147401  0.31073211    -0.38290
O2286       O  0.47533832  0.78831643  0.33584422    -0.38230
O2287       O  0.38400996  0.76423754  0.35823552    -0.38940
O2288       O  0.39793320  0.76963696  0.38329919    -0.39000
C2289       C  0.40210943  0.88575115  0.34672190    -0.11280
C2290       C  0.39394427  0.89348845  0.36170839     0.05720
C2291       C  0.37898031  0.88481385  0.36939764    -0.06570
C2292       C  0.37307953  0.86849183  0.36224798    -0.07310
C2293       C  0.38141649  0.86080226  0.34728212    -0.01870
C2294       C  0.39620414  0.86969356  0.33955381     0.04950
N2295       N  0.40584415  0.86248334  0.32469774     0.67460
H2296       H  0.41361474  0.89201721  0.34058072     0.16360
H2297       H  0.36157938  0.86201603  0.36816328     0.16070
N2298       N  0.36921024  0.89253967  0.38391300     0.75160
O2299       O  0.40809288  0.87179262  0.31070877    -0.38290
O2300       O  0.41495970  0.84851914  0.32687406    -0.38230
O2301       O  0.36300581  0.90807129  0.38228340    -0.38940
O2302       O  0.36387105  0.88281895  0.39670469    -0.39000
C2303       C  0.37205059  0.97719023  0.31208129    -0.11280
C2304       C  0.38317075  0.98358672  0.29841768     0.05720
C2305       C  0.40189811  0.98176474  0.30028370    -0.06570
C2306       C  0.40888932  0.97336500  0.31568312    -0.07310
C2307       C  0.39767101  0.96694914  0.32933472    -0.01870
C2308       C  0.37895887  0.96867361  0.32725454     0.04950
N2309       N  0.36663598  0.96126697  0.33997145     0.67460
H2310       H  0.35768705  0.97810247  0.31065924     0.16360
H2311       H  0.42322584  0.97231849  0.31721428     0.16070
N2312       N  0.41401572  0.98884867  0.28715152     0.75160
O2313       O  0.35398853  0.97066584  0.34577654    -0.38290
O2314       O  0.36633772  0.94467624  0.34267932    -0.38230
O2315       O  0.41253758  0.00479910  0.28195397    -0.38940
O2316       O  0.42783705  0.98023225  0.28302335    -0.39000
C2317       C  0.04166778  0.27830497  0.35924452    -0.11280
C2318       C  0.02847246  0.27361276  0.34678227     0.05720
C2319       C  0.03219419  0.27571476  0.32821063    -0.06570
C2320       C  0.04905830  0.28213103  0.32279781    -0.07310
C2321       C  0.06214259  0.28694495  0.33545581    -0.01870
C2322       C  0.05816384  0.28488998  0.35390726     0.04950
N2323       N  0.07061691  0.28945391  0.36767337     0.67460
H2324       H  0.03929206  0.27683614  0.37352842     0.16360
H2325       H  0.05175130  0.28381268  0.30860204     0.16070
N2326       N  0.01905800  0.27196857  0.31470928     0.75160
O2327       O  0.06887723  0.30412073  0.37557896    -0.38290
O2328       O  0.07947408  0.27723441  0.37520412    -0.38230
O2329       O  0.00413819  0.27971851  0.31512301    -0.38940
O2330       O  0.02352838  0.26384660  0.30064906    -0.39000
C2331       C  0.09111437  0.37690222  0.37328947    -0.11280
C2332       C  0.08669268  0.39138570  0.36214046     0.05720
C2333       C  0.09034701  0.39036851  0.34353383    -0.06570
C2334       C  0.09696012  0.37451652  0.33639548    -0.07310
C2335       C  0.10063215  0.35969453  0.34731317    -0.01870
C2336       C  0.09786846  0.36094243  0.36611953     0.04950
N2337       N  0.10055708  0.34596723  0.37795481     0.67460
H2338       H  0.08821696  0.37761205  0.38751065     0.16360
H2339       H  0.09946503  0.37380523  0.32208973     0.16070
N2340       N  0.08786141  0.40542596  0.33176055     0.75160
O2341       O  0.10525926  0.34843058  0.39404033    -0.38290
O2342       O  0.09567339  0.33061613  0.37330552    -0.38230
O2343       O  0.09299383  0.42066652  0.33655075    -0.38940
O2344       O  0.08295367  0.40315696  0.31570425    -0.39000
C2345       C  0.07348047  0.45641214  0.31565190    -0.11280
C2346       C  0.07315734  0.46661377  0.33131298     0.05720
C2347       C  0.08015224  0.48411514  0.33112128    -0.06570
C2348       C  0.08752193  0.49070925  0.31510894    -0.07310
C2349       C  0.08834819  0.48032719  0.29958546    -0.01870
C2350       C  0.08120367  0.46289175  0.29975297     0.04950
N2351       N  0.08290996  0.45107981  0.28468905     0.67460
H2352       H  0.06832066  0.44294565  0.31605731     0.16360
H2353       H  0.09322376  0.50395861  0.31485629     0.16070
N2354       N  0.07984595  0.49546181  0.34669621     0.75160
O2355       O  0.08450829  0.43454769  0.28731518    -0.38290
O2356       O  0.08120571  0.45673057  0.26878761    -0.38230
O2357       O  0.08046026  0.48910189  0.36241074    -0.38940
O2358       O  0.08018818  0.51215245  0.34473866    -0.39000
C2359       C  0.05655185  0.41060218  0.01717339    -0.11280
C2360       C  0.07521574  0.41206581  0.01784582     0.05720
C2361       C  0.08532923  0.40721855  0.00261129    -0.06570
C2362       C  0.07650811  0.40188255  0.98691344    -0.07310
C2363       C  0.05788076  0.40057884  0.98609633    -0.01870
C2364       C  0.04767118  0.40508917  0.00139232     0.04950
N2365       N  0.02846029  0.40514042  0.00088331     0.67460
H2366       H  0.04883787  0.41457365  0.02874473     0.16360
H2367       H  0.08432837  0.39800067  0.97536863     0.16070
N2368       N  0.10452874  0.40679106  0.00309794     0.75160
O2369       O  0.01966979  0.40359381  0.01524373    -0.38290
O2370       O  0.02023794  0.40892625  0.98653346    -0.38230
O2371       O  0.11256067  0.40069680  0.01673972    -0.38940
O2372       O  0.11336676  0.40991642  0.98901718    -0.39000
C2373       C  0.08794958  0.51752133  0.08355103    -0.11280
C2374       C  0.07423348  0.51714690  0.09639368     0.05720
C2375       C  0.06722592  0.50039581  0.10167066    -0.06570
C2376       C  0.07403636  0.48478439  0.09429508    -0.07310
C2377       C  0.08782017  0.48503024  0.08159124    -0.01870
C2378       C  0.09492162  0.50173874  0.07623365     0.04950
N2379       N  0.10935114  0.50306659  0.06372488     0.67460
H2380       H  0.09369920  0.53014882  0.07952274     0.16360
H2381       H  0.06837111  0.47224055  0.09871161     0.16070
N2382       N  0.05342051  0.49877222  0.11483292     0.75160
O2383       O  0.10811208  0.51360198  0.05050298    -0.38290
O2384       O  0.12446420  0.49691260  0.06794746    -0.38230
O2385       O  0.03766874  0.50320657  0.11079611    -0.38940
O2386       O  0.05617841  0.48972355  0.12891684    -0.39000
C2387       C  0.15913889  0.39704913  0.04360709    -0.11280
C2388       C  0.15466594  0.41465478  0.03906496     0.05720
C2389       C  0.16548912  0.42405514  0.02673038    -0.06570
C2390       C  0.18026393  0.41551943  0.01913234    -0.07310
C2391       C  0.18464552  0.39787724  0.02374917    -0.01870
C2392       C  0.17384482  0.38862325  0.03617699     0.04950
N2393       N  0.17746870  0.37063621  0.04145345     0.67460
H2394       H  0.15098737  0.38950370  0.05292793     0.16360
H2395       H  0.18844376  0.42283418  0.00964957     0.16070
N2396       N  0.16158823  0.44199360  0.02143953     0.75160
O2397       O  0.18131679  0.36713057  0.05760759    -0.38290
O2398       O  0.17346025  0.35811418  0.03099393    -0.38230
O2399       O  0.16288060  0.45429920  0.03279908    -0.38940
O2400       O  0.16064710  0.44596676  0.00496299    -0.39000
C2401       C  0.16060382  0.34254523  0.25218772    -0.11280
C2402       C  0.15024752  0.34259916  0.23641715     0.05720
C2403       C  0.13312330  0.33462453  0.23698542    -0.06570
C2404       C  0.12655196  0.32780622  0.25334542    -0.07310
C2405       C  0.13668591  0.32840183  0.26926724    -0.01870
C2406       C  0.15407123  0.33576426  0.26847063     0.04950
N2407       N  0.16513521  0.33720329  0.28411524     0.67460
H2408       H  0.17374789  0.34854244  0.25214605     0.16360
H2409       H  0.11335047  0.32194841  0.25355340     0.16070
N2410       N  0.12213467  0.33337805  0.22124971     0.75160
O2411       O  0.18067337  0.33075659  0.28394924    -0.38290
O2412       O  0.16102668  0.34810120  0.29622803    -0.38230
O2413       O  0.12773709  0.32506631  0.20773012    -0.38940
O2414       O  0.10584051  0.33750479  0.22205583    -0.39000
C2415       C  0.11672680  0.40761059  0.12857089    -0.11280
C2416       C  0.12506205  0.40595099  0.11185881     0.05720
C2417       C  0.14106421  0.39609426  0.11067313    -0.06570
C2418       C  0.14836931  0.38827316  0.12618079    -0.07310
C2419       C  0.14042001  0.39037141  0.14301970    -0.01870
C2420       C  0.12431084  0.40027640  0.14436000     0.04950
N2421       N  0.11600721  0.40399896  0.16141779     0.67460
H2422       H  0.10453590  0.41528771  0.12936844     0.16360
H2423       H  0.16084779  0.38106964  0.12519580     0.16070
N2424       N  0.15019363  0.39394356  0.09392651     0.75160
O2425       O  0.10496862  0.41660047  0.16271320    -0.38290
O2426       O  0.11892207  0.39440844  0.17508113    -0.38230
O2427       O  0.15541255  0.40744839  0.08527342    -0.38940
O2428       O  0.15618135  0.37885610  0.08972397    -0.39000
C2429       C  0.14207231  0.45386841  0.21373487    -0.11280
C2430       C  0.14585767  0.45706959  0.23185140     0.05720
C2431       C  0.15787284  0.44582037  0.24124927    -0.06570
C2432       C  0.16519670  0.43115032  0.23230629    -0.07310
C2433       C  0.16044800  0.42741479  0.21450236    -0.01870
C2434       C  0.14942191  0.43934543  0.20481600     0.04950
N2435       N  0.14570470  0.43698386  0.18597523     0.67460
H2436       H  0.13339352  0.46291283  0.20642082     0.16360
H2437       H  0.17349702  0.42182589  0.23970075     0.16070
N2438       N  0.16170941  0.44818037  0.26002999     0.75160
O2439       O  0.13165066  0.44333845  0.17909830    -0.38290
O2440       O  0.15741559  0.43058884  0.17573452    -0.38230
O2441       O  0.14942197  0.45220569  0.27081291    -0.38940
O2442       O  0.17674802  0.44373882  0.26627995    -0.39000
C2443       C  0.09689433  0.50350643  0.42758249    -0.11280
C2444       C  0.08634888  0.51880760  0.42495985     0.05720
C2445       C  0.06987085  0.51697503  0.41581447    -0.06570
C2446       C  0.06438087  0.50023405  0.40978858    -0.07310
C2447       C  0.07505517  0.48498735  0.41196957    -0.01870
C2448       C  0.09147762  0.48669703  0.42128748     0.04950
N2449       N  0.10288503  0.47168992  0.42445993     0.67460
H2450       H  0.10948701  0.50455892  0.43466998     0.16360
H2451       H  0.05187647  0.49940752  0.40250768     0.16070
N2452       N  0.05883823  0.53201511  0.41164404     0.75160
O2453       O  0.11944250  0.47305063  0.42174157    -0.38290
O2454       O  0.09704073  0.45833277  0.43295704    -0.38230
O2455       O  0.06434983  0.54365842  0.40068976    -0.38940
O2456       O  0.04250828  0.53168717  0.41569811    -0.39000
C2457       C  0.16929391  0.58053294  0.46796603    -0.11280
C2458       C  0.15328441  0.59015766  0.46846272     0.05720
C2459       C  0.15320185  0.60749641  0.47576846    -0.06570
C2460       C  0.16916883  0.61484643  0.48195096    -0.07310
C2461       C  0.18523468  0.60539119  0.48126128    -0.01870
C2462       C  0.18538528  0.58807112  0.47393016     0.04950
N2463       N  0.20173184  0.57845366  0.47134710     0.67460
H2464       H  0.16946807  0.56747820  0.46190792     0.16360
H2465       H  0.16891108  0.62797370  0.48785113     0.16070
N2466       N  0.13707056  0.61771997  0.47742008     0.75160
O2467       O  0.20195936  0.56173891  0.47304146    -0.38290
O2468       O  0.21505659  0.58616612  0.46447735    -0.38230
O2469       O  0.12295682  0.61049605  0.48309373    -0.38940
O2470       O  0.13748769  0.63441624  0.47554706    -0.39000
C2471       C  0.13906552  0.67381308  0.26905079    -0.11280
C2472       C  0.15123171  0.65965870  0.26792427     0.05720
C2473       C  0.15654627  0.65381831  0.25068341    -0.06570
C2474       C  0.14966700  0.66218733  0.23525977    -0.07310
C2475       C  0.13717138  0.67602589  0.23632773    -0.01870
C2476       C  0.13218073  0.68224823  0.25352570     0.04950
N2477       N  0.12079869  0.69746799  0.25553876     0.67460
H2478       H  0.13520175  0.67863986  0.28214434     0.16360
H2479       H  0.15346176  0.65711724  0.22223413     0.16070
N2480       N  0.16799575  0.63870596  0.24842706     0.75160
O2481       O  0.11011504  0.69824852  0.26857882    -0.38290
O2482       O  0.12341779  0.71125500  0.24613071    -0.38230
O2483       O  0.16366148  0.62386493  0.25514417    -0.38940
O2484       O  0.18043166  0.63932232  0.23704973    -0.39000
C2485       C  0.12535758  0.61634511  0.36764558    -0.11280
C2486       C  0.14357928  0.61289697  0.36481810     0.05720
C2487       C  0.15259814  0.60138297  0.37691683    -0.06570
C2488       C  0.14310072  0.59304415  0.39079327    -0.07310
C2489       C  0.12480317  0.59609362  0.39348420    -0.01870
C2490       C  0.11580728  0.60797949  0.38170317     0.04950
N2491       N  0.09695107  0.61099744  0.38310501     0.67460
H2492       H  0.11826190  0.62488623  0.35827490     0.16360
H2493       H  0.15035673  0.58446357  0.40000794     0.16070
N2494       N  0.17150316  0.59840418  0.37573438     0.75160
O2495       O  0.09057774  0.62613406  0.37943618    -0.38290
O2496       O  0.08643689  0.59803056  0.38516424    -0.38230
O2497       O  0.18202322  0.61141544  0.37399529    -0.38940
O2498       O  0.17786080  0.58317988  0.37904744    -0.39000
C2499       C  0.14852218  0.58107301  0.27354837    -0.11280
C2500       C  0.15949152  0.58002584  0.28880258     0.05720
C2501       C  0.16486115  0.56319905  0.29549487    -0.06570
C2502       C  0.15858620  0.54782654  0.28693067    -0.07310
C2503       C  0.14672001  0.54898065  0.27235743    -0.01870
C2504       C  0.14222563  0.56578130  0.26507267     0.04950
N2505       N  0.13149012  0.56753835  0.24907260     0.67460
H2506       H  0.14479378  0.59399175  0.26819847     0.16360
H2507       H  0.16184574  0.53489425  0.29255858     0.16070
N2508       N  0.17527698  0.56135414  0.31166703     0.75160
O2509       O  0.12185221  0.58112147  0.24668350    -0.38290
O2510       O  0.13325472  0.55668735  0.23634313    -0.38230
O2511       O  0.17182661  0.57074461  0.32520052    -0.38940
O2512       O  0.18595028  0.54847417  0.31343328    -0.39000
C2513       C  0.55583273  0.70851482  0.33039482    -0.11280
C2514       C  0.57247440  0.71329464  0.33753673     0.05720
C2515       C  0.57328609  0.72543591  0.35193971    -0.06570
C2516       C  0.55739889  0.73159433  0.35951730    -0.07310
C2517       C  0.54071255  0.72632343  0.35285369    -0.01870
C2518       C  0.53989628  0.71465098  0.33803928     0.04950
N2519       N  0.52321514  0.70783842  0.33145104     0.67460
H2520       H  0.55519435  0.69895257  0.31959648     0.16360
H2521       H  0.55807803  0.74089807  0.37054336     0.16070
N2522       N  0.59003645  0.73192465  0.35877215     0.75160
O2523       O  0.52122598  0.70488221  0.31489770    -0.38290
O2524       O  0.51167854  0.70199544  0.34231169    -0.38230
O2525       O  0.60243810  0.73609694  0.34810578    -0.38940
O2526       O  0.59168086  0.73564645  0.37520141    -0.39000
C2527       C  0.60340315  0.60571621  0.35999453    -0.11280
C2528       C  0.58727802  0.60823625  0.36927945     0.05720
C2529       C  0.57954584  0.62536238  0.36954569    -0.06570
C2530       C  0.58752138  0.63919163  0.35975630    -0.07310
C2531       C  0.60322636  0.63659421  0.34995694    -0.01870
C2532       C  0.61142299  0.61963021  0.35005146     0.04950
N2533       N  0.62691580  0.61589598  0.33927333     0.67460
H2534       H  0.60907040  0.59248533  0.35940703     0.16360
H2535       H  0.58147198  0.65228240  0.35992363     0.16070
N2536       N  0.56373856  0.62899879  0.37978916     0.75160
O2537       O  0.63683530  0.60284995  0.34315863    -0.38290
O2538       O  0.62959844  0.62417395  0.32471582    -0.38230
O2539       O  0.56173812  0.62215576  0.39518751    -0.38940
O2540       O  0.55280439  0.64067765  0.37445855    -0.39000
C2541       C  0.55718796  0.51712564  0.30640459    -0.11280
C2542       C  0.56875342  0.52702874  0.29544544     0.05720
C2543       C  0.57334377  0.54457233  0.30017545    -0.06570
C2544       C  0.56821942  0.55090365  0.31691086    -0.07310
C2545       C  0.55831504  0.54034627  0.32881634    -0.01870
C2546       C  0.55194264  0.52351290  0.32326710     0.04950
N2547       N  0.54150838  0.51216521  0.33482367     0.67460
H2548       H  0.55363321  0.50369617  0.30260920     0.16360
H2549       H  0.57242156  0.56408996  0.32093277     0.16070
N2550       N  0.58353795  0.55588919  0.28835608     0.75160
O2551       O  0.53030124  0.50157141  0.32809742    -0.38290
O2552       O  0.54509567  0.51082984  0.35134213    -0.38230
O2553       O  0.58105363  0.55537162  0.27158726    -0.38940
O2554       O  0.59370025  0.56768735  0.29470421    -0.39000
C2555       C  0.58285925  0.48123866  0.40895156    -0.11280
C2556       C  0.58978086  0.48150124  0.42644687     0.05720
C2557       C  0.59135766  0.49799991  0.43536356    -0.06570
C2558       C  0.58516283  0.51358644  0.42689984    -0.07310
C2559       C  0.57806040  0.51320662  0.40944011    -0.01870
C2560       C  0.57753860  0.49684730  0.40016499     0.04950
N2561       N  0.57260027  0.49590184  0.38155072     0.67460
H2562       H  0.58227308  0.46881767  0.40168436     0.16360
H2563       H  0.58588929  0.52606179  0.43405241     0.16070
N2564       N  0.59882847  0.49922266  0.45304061     0.75160
O2565       O  0.58031224  0.50579056  0.37020490    -0.38290
O2566       O  0.56314838  0.48314172  0.37605265    -0.38230
O2567       O  0.61536763  0.49694575  0.45526728    -0.38940
O2568       O  0.58992701  0.50644596  0.46535176    -0.39000
C2569       C  0.65962947  0.41439079  0.48876309    -0.11280
C2570       C  0.65936422  0.42351884  0.47231501     0.05720
C2571       C  0.67517178  0.42530283  0.46215404    -0.06570
C2572       C  0.69065234  0.41679982  0.46833300    -0.07310
C2573       C  0.69050474  0.40666215  0.48415674    -0.01870
C2574       C  0.67502409  0.40579808  0.49488965     0.04950
N2575       N  0.67446535  0.39617355  0.51172839     0.67460
H2576       H  0.64735922  0.41296316  0.49630810     0.16360
H2577       H  0.70277449  0.41759848  0.46047040     0.16070
N2578       N  0.67548933  0.43445019  0.44509652     0.75160
O2579       O  0.66365819  0.40080175  0.52379216    -0.38290
O2580       O  0.68348064  0.38218684  0.51412638    -0.38230
O2581       O  0.66722643  0.44892669  0.44297284    -0.38940
O2582       O  0.68590876  0.42935162  0.43288173    -0.39000
C2583       C  0.64595876  0.40646812  0.39590656    -0.11280
C2584       C  0.62751458  0.40472045  0.39872629     0.05720
C2585       C  0.61731496  0.39469401  0.38637197    -0.06570
C2586       C  0.62577366  0.38710200  0.37140287    -0.07310
C2587       C  0.64407253  0.38962245  0.36823998    -0.01870
C2588       C  0.65438215  0.39895225  0.38103534     0.04950
N2589       N  0.67341681  0.40072701  0.37933515     0.67460
H2590       H  0.65405402  0.41357226  0.40557414     0.16360
H2591       H  0.61774783  0.38019895  0.36153520     0.16070
N2592       N  0.59832441  0.39301912  0.38805673     0.75160
O2593       O  0.68111720  0.41474993  0.38444959    -0.38290
O2594       O  0.68278431  0.38750551  0.37498908    -0.38230
O2595       O  0.58883478  0.40670784  0.39012248    -0.38940
O2596       O  0.59082378  0.37845974  0.38436589    -0.39000
C2597       C  0.65193999  0.43567176  0.27908153    -0.11280
C2598       C  0.64381849  0.42681098  0.29353552     0.05720
C2599       C  0.62701156  0.43268167  0.29971883    -0.06570
C2600       C  0.61878714  0.44721246  0.29128893    -0.07310
C2601       C  0.62685690  0.45614225  0.27684896    -0.01870
C2602       C  0.64345257  0.44997322  0.27031959     0.04950
N2603       N  0.65124650  0.45713702  0.25420094     0.67460
H2604       H  0.66447641  0.43074867  0.27389873     0.16360
H2605       H  0.60613038  0.45187152  0.29642705     0.16070
N2606       N  0.61831701  0.42443279  0.31482283     0.75160
O2607       O  0.66798496  0.45830879  0.25283537    -0.38290
O2608       O  0.64176221  0.45924197  0.24030167    -0.38230
O2609       O  0.62696904  0.42109455  0.32902649    -0.38940
O2610       O  0.60157676  0.42259198  0.31484901    -0.39000
C2611       C  0.73401853  0.33625000  0.35089711    -0.11280
C2612       C  0.75023857  0.34187314  0.34333807     0.05720
C2613       C  0.74995866  0.35535549  0.32995385    -0.06570
C2614       C  0.73356701  0.36310604  0.32493317    -0.07310
C2615       C  0.71743633  0.35745796  0.33265797    -0.01870
C2616       C  0.71777110  0.34398668  0.34600173     0.04950
N2617       N  0.70195211  0.33863848  0.35548106     0.67460
H2618       H  0.73396753  0.32629403  0.36149145     0.16360
H2619       H  0.73335838  0.37320407  0.31447832     0.16070
N2620       N  0.76592414  0.36093463  0.32092533     0.75160
O2621       O  0.69949379  0.32246066  0.35939954    -0.38290
O2622       O  0.69201333  0.35021543  0.36246554    -0.38230
O2623       O  0.77637420  0.34948374  0.31450189    -0.38940
O2624       O  0.76808248  0.37709552  0.31676171    -0.39000
C2625       C  0.81924331  0.26900614  0.33544833    -0.11280
C2626       C  0.80875537  0.26946499  0.35099275     0.05720
C2627       C  0.80415340  0.25317564  0.35952717    -0.06570
C2628       C  0.81102681  0.23710281  0.35285407    -0.07310
C2629       C  0.82204969  0.23677830  0.33763276    -0.01870
C2630       C  0.82610671  0.25306751  0.32885143     0.04950
N2631       N  0.83815862  0.25398198  0.31396284     0.67460
H2632       H  0.82303954  0.28130278  0.32880616     0.16360
H2633       H  0.80756475  0.22472916  0.35952592     0.16070
N2634       N  0.79225276  0.25257033  0.37459758     0.75160
O2635       O  0.83368728  0.26241451  0.29993537    -0.38290
O2636       O  0.85432049  0.24980067  0.31622902    -0.38230
O2637       O  0.77749153  0.26061315  0.37382449    -0.38940
O2638       O  0.79502831  0.24167801  0.38728579    -0.39000
C2639       C  0.77052294  0.32783175  0.43670382    -0.11280
C2640       C  0.77093618  0.33852892  0.42118823     0.05720
C2641       C  0.76410382  0.35604382  0.42181359    -0.06570
C2642       C  0.75784550  0.36266544  0.43803199    -0.07310
C2643       C  0.75776157  0.35220554  0.45366604    -0.01870
C2644       C  0.76423324  0.33453587  0.45306398     0.04950
N2645       N  0.76556642  0.32363870  0.46894894     0.67460
H2646       H  0.77603050  0.31452164  0.43633784     0.16360
H2647       H  0.75250711  0.37605477  0.43827047     0.16070
N2648       N  0.76291621  0.36715299  0.40606358     0.75160
O2649       O  0.76268254  0.30712920  0.46803134    -0.38290
O2650       O  0.77245289  0.32984139  0.48307367    -0.38230
O2651       O  0.75571088  0.36129773  0.39194434    -0.38940
O2652       O  0.76658722  0.38350638  0.40704292    -0.39000
C2653       C  0.97352792  0.41826604  0.39767790    -0.11280
C2654       C  0.97316850  0.40879934  0.41403837     0.05720
C2655       C  0.98940196  0.40664504  0.42362113    -0.06570
C2656       C  0.00527222  0.41371803  0.41671107    -0.07310
C2657       C  0.00578183  0.42275922  0.40014723    -0.01870
C2658       C  0.98950243  0.42535862  0.39070045     0.04950
N2659       N  0.98877055  0.43525982  0.37417590     0.67460
H2660       H  0.96126237  0.42022659  0.39019351     0.16360
H2661       H  0.01748440  0.41151654  0.42422345     0.16070
N2662       N  0.99031697  0.39675786  0.44010405     0.75160
O2663       O  0.97988152  0.42933562  0.36109259    -0.38290
O2664       O  0.99398276  0.45122029  0.37378561    -0.38230
O2665       O  0.98934174  0.38000624  0.43974887    -0.38940
O2666       O  0.99602989  0.40422922  0.45411091    -0.39000
C2667       C  0.86918982  0.36992166  0.38988012    -0.11280
C2668       C  0.87486622  0.36383195  0.40686951     0.05720
C2669       C  0.86562540  0.34947187  0.41499899    -0.06570
C2670       C  0.85193361  0.34098483  0.40566166    -0.07310
C2671       C  0.84634753  0.34674330  0.38857391    -0.01870
C2672       C  0.85504580  0.36157474  0.38061977     0.04950
N2673       N  0.85021273  0.36800361  0.36307004     0.67460
H2674       H  0.87625219  0.38078003  0.38342458     0.16360
H2675       H  0.84504721  0.33014227  0.41234450     0.16070
N2676       N  0.86945335  0.34365653  0.43301795     0.75160
O2677       O  0.84997460  0.38451469  0.35988361    -0.38290
O2678       O  0.84901526  0.35732973  0.35012105    -0.38230
O2679       O  0.86913578  0.35470519  0.44569014    -0.38940
O2680       O  0.87014785  0.32725210  0.43668904    -0.39000
C2681       C  0.96135066  0.33173878  0.40047477    -0.11280
C2682       C  0.94831771  0.33059103  0.41392022     0.05720
C2683       C  0.94242939  0.31364308  0.41980770    -0.06570
C2684       C  0.95007421  0.29832663  0.41227153    -0.07310
C2685       C  0.96280915  0.29954813  0.39852139    -0.01870
C2686       C  0.96877612  0.31649580  0.39278827     0.04950
N2687       N  0.98264971  0.31850609  0.37960762     0.67460
H2688       H  0.96600467  0.34470575  0.39608556     0.16360
H2689       H  0.94522796  0.28534136  0.41636197     0.16070
N2690       N  0.92788673  0.31166682  0.43223614     0.75160
O2691       O  0.98258743  0.33170835  0.36902893    -0.38290
O2692       O  0.99616842  0.30850534  0.38005333    -0.38230
O2693       O  0.91434705  0.32157573  0.43094650    -0.38940
O2694       O  0.92723763  0.29828589  0.44255583    -0.39000
C2695       C  0.48085459  0.57474189  0.42579509    -0.11280
C2696       C  0.47468784  0.59128496  0.41954913     0.05720
C2697       C  0.48444185  0.60057138  0.40627123    -0.06570
C2698       C  0.49987213  0.59292525  0.39922011    -0.07310
C2699       C  0.50627647  0.57657038  0.40557896    -0.01870
C2700       C  0.49656997  0.56710151  0.41887314     0.04950
N2701       N  0.50196787  0.54965003  0.42494323     0.67460
H2702       H  0.47319533  0.56766100  0.43587857     0.16360
H2703       H  0.50748549  0.60025474  0.38926034     0.16070
N2704       N  0.47948515  0.61818458  0.40054747     0.75160
O2705       O  0.49657993  0.54366649  0.43985781    -0.38290
O2706       O  0.51040018  0.53937362  0.41467548    -0.38230
O2707       O  0.47571376  0.62978069  0.41207902    -0.38940
O2708       O  0.48204973  0.62305134  0.38449760    -0.39000
C2709       C  0.45238157  0.67328565  0.40303317    -0.11280
C2710       C  0.45485955  0.66931351  0.42135170     0.05720
C2711       C  0.46524969  0.68103138  0.43189652    -0.06570
C2712       C  0.47234680  0.69655050  0.42393903    -0.07310
C2713       C  0.46986682  0.70034113  0.40557458    -0.01870
C2714       C  0.45957049  0.68854783  0.39509065     0.04950
N2715       N  0.45564130  0.69210620  0.37651741     0.67460
H2716       H  0.44431554  0.66464728  0.39472166     0.16360
H2717       H  0.48049839  0.70533611  0.43200312     0.16070
N2718       N  0.46949320  0.67707786  0.45030297     0.75160
O2719       O  0.45665826  0.67975466  0.36517664    -0.38290
O2720       O  0.44839766  0.70661673  0.37197434    -0.38230
O2721       O  0.47638422  0.66227987  0.45441819    -0.38940
O2722       O  0.46956914  0.68937858  0.46174431    -0.39000
C2723       C  0.23927488  0.67346157  0.34880983    -0.11280
C2724       C  0.25492142  0.66349043  0.34625287     0.05720
C2725       C  0.25387560  0.64787008  0.33580905    -0.06570
C2726       C  0.23735364  0.64255212  0.32860407    -0.07310
C2727       C  0.22160817  0.65221194  0.33179498    -0.01870
C2728       C  0.22281234  0.66815515  0.34169677     0.04950
N2729       N  0.20756631  0.67924738  0.34466815     0.67460
H2730       H  0.23973351  0.68562436  0.35650299     0.16360
H2731       H  0.23675293  0.63029624  0.32107130     0.16070
N2732       N  0.26914167  0.63682057  0.33291542     0.75160
O2733       O  0.20436547  0.68494210  0.36023354    -0.38290
O2734       O  0.19931773  0.68590530  0.33143206    -0.38230
O2735       O  0.27612297  0.62861940  0.34601159    -0.38940
O2736       O  0.27314967  0.63230873  0.31714391    -0.39000
C2737       C  0.31299096  0.74694941  0.36071279    -0.11280
C2738       C  0.32033827  0.73067811  0.35516348     0.05720
C2739       C  0.33494220  0.73101818  0.34320794    -0.06570
C2740       C  0.34203142  0.74730177  0.33753090    -0.07310
C2741       C  0.33492809  0.76360374  0.34323098    -0.01870
C2742       C  0.32010926  0.76334094  0.35494972     0.04950
N2743       N  0.31199623  0.77941794  0.36106481     0.67460
H2744       H  0.30176385  0.74698118  0.36983745     0.16360
H2745       H  0.35340794  0.74708891  0.32859563     0.16070
N2746       N  0.34316086  0.71502163  0.33701191     0.75160
O2747       O  0.29550338  0.78182030  0.35862280    -0.38290
O2748       O  0.32020619  0.78912101  0.37210435    -0.38230
O2749       O  0.33532213  0.70571833  0.32536164    -0.38940
O2750       O  0.35948061  0.71229650  0.34019719    -0.39000
C2751       C  0.35221987  0.65524019  0.41530645    -0.11280
C2752       C  0.34879116  0.65269015  0.39695174     0.05720
C2753       C  0.35997911  0.64106104  0.38719970    -0.06570
C2754       C  0.37439869  0.63264472  0.39605273    -0.07310
C2755       C  0.37809668  0.63581836  0.41427600    -0.01870
C2756       C  0.36644424  0.64683895  0.42410627     0.04950
N2757       N  0.36857826  0.64936590  0.44311969     0.67460
H2758       H  0.34342853  0.66358375  0.42311169     0.16360
H2759       H  0.38340391  0.62441486  0.38837810     0.16070
N2760       N  0.35765659  0.63842237  0.36825154     0.75160
O2761       O  0.36536999  0.66432607  0.44997852    -0.38290
O2762       O  0.37136296  0.63617871  0.45334421    -0.38230
O2763       O  0.35564215  0.65162577  0.35787394    -0.38940
O2764       O  0.36054528  0.62332426  0.36156088    -0.39000
C2765       C  0.26064761  0.65358159  0.42518275    -0.11280
C2766       C  0.27134040  0.66887127  0.42626835     0.05720
C2767       C  0.27262978  0.67787680  0.44283948    -0.06570
C2768       C  0.26397547  0.67079919  0.45801430    -0.07310
C2769       C  0.25397773  0.65502732  0.45697232    -0.01870
C2770       C  0.25210375  0.64658179  0.44022512     0.04950
N2771       N  0.24162128  0.63082005  0.43817315     0.67460
H2772       H  0.25919284  0.64664319  0.41255307     0.16360
H2773       H  0.26537370  0.67750116  0.47077256     0.16070
N2774       N  0.28309388  0.69370729  0.44475217     0.75160
O2775       O  0.22679271  0.63170586  0.43015643    -0.38290
O2776       O  0.24869767  0.61581356  0.44090593    -0.38230
O2777       O  0.27878306  0.70759159  0.43616372    -0.38940
O2778       O  0.29412199  0.69488966  0.45753417    -0.39000
C2779       C  0.29438669  0.56263753  0.71310714    -0.11280
C2780       C  0.30308995  0.57823208  0.71874250     0.05720
C2781       C  0.31761653  0.57679775  0.73077501    -0.06570
C2782       C  0.32383471  0.56017456  0.73582201    -0.07310
C2783       C  0.31584618  0.54467970  0.72968152    -0.01870
C2784       C  0.30064381  0.54569320  0.71839838     0.04950
N2785       N  0.29210257  0.53001459  0.71143665     0.67460
H2786       H  0.28328634  0.56364012  0.70380368     0.16360
H2787       H  0.33514560  0.55940691  0.74490213     0.16070
N2788       N  0.32566222  0.59183551  0.73915722     0.75160
O2789       O  0.27590728  0.53052729  0.70675650    -0.38290
O2790       O  0.30107460  0.51624683  0.70806044    -0.38230
O2791       O  0.32715428  0.59155226  0.75605157    -0.38940
O2792       O  0.33613433  0.60156712  0.73020428    -0.39000
C2793       C  0.38490573  0.58010669  0.50421698    -0.11280
C2794       C  0.39037810  0.58638265  0.52111090     0.05720
C2795       C  0.40428111  0.59912821  0.52179614    -0.06570
C2796       C  0.41187566  0.60552331  0.50567788    -0.07310
C2797       C  0.40620892  0.59934418  0.48880830    -0.01870
C2798       C  0.39233649  0.58656634  0.48817940     0.04950
N2799       N  0.38477618  0.58077770  0.47146151     0.67460
H2800       H  0.37399857  0.57069184  0.50333778     0.16360
H2801       H  0.42261844  0.61513501  0.50637098     0.16070
N2802       N  0.41124556  0.60534418  0.53859749     0.75160
O2803       O  0.38095794  0.56457985  0.46930176    -0.38290
O2804       O  0.37888765  0.59210393  0.46033366    -0.38230
O2805       O  0.41547197  0.59434393  0.55077171    -0.38940
O2806       O  0.41586845  0.62139854  0.54021098    -0.39000
C2807       C  0.31715950  0.59173250  0.61774999    -0.11280
C2808       C  0.33497018  0.59601966  0.61373081     0.05720
C2809       C  0.34394774  0.60824409  0.62499786    -0.06570
C2810       C  0.33507094  0.61542749  0.63998717    -0.07310
C2811       C  0.31728699  0.61092850  0.64401498    -0.01870
C2812       C  0.30837001  0.59878284  0.63262302     0.04950
N2813       N  0.29050379  0.59295730  0.63608520     0.67460
H2814       H  0.30989498  0.58242451  0.60943285     0.16360
H2815       H  0.34216195  0.62468837  0.64849835     0.16070
N2816       N  0.36196519  0.61357501  0.62155367     0.75160
O2817       O  0.27855887  0.59547173  0.62435732    -0.38290
O2818       O  0.28762101  0.58209045  0.64875251    -0.38230
O2819       O  0.36562143  0.62192738  0.60726872    -0.38940
O2820       O  0.37329087  0.61318787  0.63412958    -0.39000
C2821       C  0.29189000  0.57863107  0.54240433    -0.11280
C2822       C  0.30852893  0.58498674  0.53665037     0.05720
C2823       C  0.30936555  0.59927123  0.52424499    -0.06570
C2824       C  0.29359220  0.60766344  0.51891482    -0.07310
C2825       C  0.27699124  0.60190927  0.52527615    -0.01870
C2826       C  0.27602573  0.58708781  0.53705445     0.04950
N2827       N  0.25940493  0.58130696  0.54474454     0.67460
H2828       H  0.29131446  0.56791930  0.55220391     0.16360
H2829       H  0.29426004  0.61864298  0.50942301     0.16070
N2830       N  0.32604270  0.60528962  0.51683158     0.75160
O2831       O  0.25694874  0.56505360  0.54832041    -0.38290
O2832       O  0.24835246  0.59256122  0.55048468    -0.38230
O2833       O  0.33790152  0.59420806  0.51252702    -0.38940
O2834       O  0.32816165  0.62145377  0.51264545    -0.39000
C2835       C  0.89435060  0.57499205  0.00689629    -0.11280
C2836       C  0.89227865  0.58615578  0.99180745     0.05720
C2837       C  0.89805533  0.60405130  0.99308502    -0.06570
C2838       C  0.90602791  0.61006210  0.00913113    -0.07310
C2839       C  0.90775628  0.59894823  0.02434291    -0.01870
C2840       C  0.90197998  0.58105185  0.02298733     0.04950
N2841       N  0.90390222  0.56869853  0.03765358     0.67460
H2842       H  0.89007356  0.56124834  0.00618103     0.16360
H2843       H  0.90995216  0.62389254  0.01004221     0.16070
N2844       N  0.89475459  0.61667199  0.97889667     0.75160
O2845       O  0.89129329  0.55822700  0.04151871    -0.38290
O2846       O  0.91902479  0.56621425  0.04473477    -0.38230
O2847       O  0.87917235  0.61852468  0.97268214    -0.38940
O2848       O  0.90641596  0.62818760  0.97505489    -0.39000
C2849       C  0.87471977  0.51152295  0.90904773    -0.11280
C2850       C  0.87832291  0.51399501  0.92731983     0.05720
C2851       C  0.88643067  0.50010825  0.93742760    -0.06570
C2852       C  0.89131716  0.48435426  0.92853695    -0.07310
C2853       C  0.88816342  0.48217036  0.91011188    -0.01870
C2854       C  0.87941804  0.49580258  0.90026798     0.04950
N2855       N  0.87464231  0.49384529  0.88161987     0.67460
H2856       H  0.86826379  0.52208592  0.90146373     0.16360
H2857       H  0.89787572  0.47375874  0.93595859     0.16070
N2858       N  0.89040109  0.50184694  0.95631321     0.75160
O2859       O  0.86038561  0.50068949  0.87572148    -0.38290
O2860       O  0.88535165  0.48705107  0.87059784    -0.38230
O2861       O  0.88121542  0.51180611  0.96621965    -0.38940
O2862       O  0.90239013  0.49236136  0.96349525    -0.39000
C2863       C  0.79638578  0.57539073  0.96261341    -0.11280
C2864       C  0.81183498  0.57583741  0.97320963     0.05720
C2865       C  0.81130832  0.58279573  0.99080293    -0.06570
C2866       C  0.79524115  0.58995270  0.99694877    -0.07310
C2867       C  0.78023841  0.59082376  0.98578286    -0.01870
C2868       C  0.78042793  0.58289050  0.96866079     0.04950
N2869       N  0.76482720  0.58263763  0.95724559     0.67460
H2870       H  0.79704562  0.56988100  0.94921993     0.16360
H2871       H  0.79476168  0.59607626  0.01007194     0.16070
N2872       N  0.82676952  0.58318481  0.00242035     0.75160
O2873       O  0.76639856  0.58037665  0.94053815    -0.38290
O2874       O  0.74936602  0.58304019  0.96390023    -0.38230
O2875       O  0.84233499  0.58429640  0.99612297    -0.38940
O2876       O  0.82481141  0.58370130  0.01924400    -0.39000
C2877       C  0.84336524  0.60784987  0.89224609    -0.11280
C2878       C  0.83831568  0.59067635  0.89792823     0.05720
C2879       C  0.82427570  0.58209625  0.88859634    -0.06570
C2880       C  0.81599099  0.59056077  0.87402087    -0.07310
C2881       C  0.82102950  0.60765070  0.86819316    -0.01870
C2882       C  0.83498826  0.61636152  0.87751383     0.04950
N2883       N  0.84081696  0.63380245  0.87240381     0.67460
H2884       H  0.85397328  0.61474169  0.89924191     0.16360
H2885       H  0.80531947  0.58354391  0.86725692     0.16070
N2886       N  0.81802302  0.56478554  0.89368410     0.75160
O2887       O  0.84126160  0.64597050  0.88397768    -0.38290
O2888       O  0.84883358  0.63607362  0.85768791    -0.38230
O2889       O  0.80804288  0.56311718  0.90721302    -0.38940
O2890       O  0.81898594  0.55220878  0.88260105    -0.39000
C2891       C  0.80085252  0.57120030  0.77620144    -0.11280
C2892       C  0.80530190  0.57458534  0.79415284     0.05720
C2893       C  0.81657397  0.56273047  0.80362079    -0.06570
C2894       C  0.82432586  0.54858256  0.79447884    -0.07310
C2895       C  0.82069488  0.54564057  0.77628902    -0.01870
C2896       C  0.80857151  0.55688418  0.76700986     0.04950
N2897       N  0.80495971  0.55484501  0.74814528     0.67460
H2898       H  0.79241201  0.58050458  0.76894596     0.16360
H2899       H  0.83307725  0.53955749  0.80172889     0.16070
N2900       N  0.82003524  0.56474516  0.82252789     0.75160
O2901       O  0.78987921  0.55907059  0.74184596    -0.38290
O2902       O  0.81744551  0.55135177  0.73739923    -0.38230
O2903       O  0.80773614  0.56965350  0.83290783    -0.38940
O2904       O  0.83463272  0.55953448  0.82922856    -0.39000
C2905       C  0.16153650  0.07490077  0.51954553    -0.11280
C2906       C  0.15676614  0.08037080  0.53684258     0.05720
C2907       C  0.16775599  0.09250376  0.54617110    -0.06570
C2908       C  0.18250517  0.09987003  0.53742082    -0.07310
C2909       C  0.18680992  0.09516550  0.51980665    -0.01870
C2910       C  0.17636063  0.08236019  0.51072524     0.04950
N2911       N  0.17962734  0.07786478  0.49226768     0.67460
H2912       H  0.15285356  0.06588412  0.51233954     0.16360
H2913       H  0.19084669  0.10931603  0.54448345     0.16070
N2914       N  0.16418466  0.09739844  0.56448599     0.75160
O2915       O  0.17550195  0.06264085  0.48654848    -0.38290
O2916       O  0.18417910  0.08972403  0.48109591    -0.38230
O2917       O  0.15801077  0.08609578  0.57544539    -0.38940
O2918       O  0.16910772  0.11235489  0.57030129    -0.39000
C2919       C  0.15153812  0.16070709  0.75007640    -0.11280
C2920       C  0.14044838  0.16077882  0.73480527     0.05720
C2921       C  0.12335674  0.16866974  0.73609771    -0.06570
C2922       C  0.11779710  0.17592514  0.75250252    -0.07310
C2923       C  0.12862135  0.17511937  0.76794138    -0.01870
C2924       C  0.14595860  0.16782648  0.76648107     0.04950
N2925       N  0.15820378  0.16769258  0.78135152     0.67460
H2926       H  0.16479745  0.15504831  0.74930865     0.16360
H2927       H  0.10444618  0.18134800  0.75339480     0.16070
N2928       N  0.11099827  0.16851874  0.72137504     0.75160
O2929       O  0.16763887  0.15410879  0.78447745    -0.38290
O2930       O  0.16167173  0.18195428  0.78949075    -0.38230
O2931       O  0.10542370  0.15386596  0.71538821    -0.38940
O2932       O  0.10289764  0.18262730  0.71703557    -0.39000
C2933       C  0.12993953  0.12232994  0.62463841    -0.11280
C2934       C  0.13056743  0.11202848  0.64040583     0.05720
C2935       C  0.12413894  0.09434193  0.64007828    -0.06570
C2936       C  0.11806012  0.08717083  0.62385419    -0.07310
C2937       C  0.11783653  0.09722364  0.60793764    -0.01870
C2938       C  0.12395215  0.11511894  0.60823152     0.04950
N2939       N  0.12543017  0.12574696  0.59208421     0.67460
H2940       H  0.13527884  0.13571612  0.62488863     0.16360
H2941       H  0.11322021  0.07358737  0.62367084     0.16070
N2942       N  0.12326407  0.08365161  0.65615821     0.75160
O2943       O  0.12613865  0.14248731  0.59308014    -0.38290
O2944       O  0.12850125  0.11858818  0.57713950    -0.38230
O2945       O  0.11846172  0.09053209  0.67076696    -0.38940
O2946       O  0.12493365  0.06696995  0.65535152    -0.39000
C2947       C  0.12622627  0.07628755  0.71264783    -0.11280
C2948       C  0.14417721  0.08084604  0.71532881     0.05720
C2949       C  0.15554579  0.06888397  0.72462183    -0.06570
C2950       C  0.14848495  0.05272481  0.73104110    -0.07310
C2951       C  0.13041344  0.04843790  0.72848954    -0.01870
C2952       C  0.11935194  0.06010706  0.71858306     0.04950
N2953       N  0.10137088  0.05545864  0.71373307     0.67460
H2954       H  0.11747811  0.08514561  0.70523049     0.16360
H2955       H  0.15694917  0.04383731  0.73878367     0.16070
N2956       N  0.17381544  0.07321666  0.72853006     0.75160
O2957       O  0.08933545  0.06719539  0.71353505    -0.38290
O2958       O  0.09811105  0.04045396  0.70696319    -0.38230
O2959       O  0.17779418  0.08835597  0.73456420    -0.38940
O2960       O  0.18550576  0.06113775  0.72870697    -0.39000
C2961       C  0.12804371  0.84809125  0.73865775    -0.11280
C2962       C  0.12813236  0.82959801  0.73675905     0.05720
C2963       C  0.13329044  0.81872856  0.75155073    -0.06570
C2964       C  0.13821208  0.82688862  0.76789776    -0.07310
C2965       C  0.13814682  0.84546734  0.76962604    -0.01870
C2966       C  0.13249629  0.85607304  0.75495213     0.04950
N2967       N  0.12983793  0.87484807  0.75688253     0.67460
H2968       H  0.12349045  0.85639805  0.72759537     0.16360
H2969       H  0.14279553  0.81878634  0.77907973     0.16070
N2970       N  0.13446325  0.79967913  0.75002066     0.75160
O2971       O  0.13311647  0.88530719  0.74396322    -0.38290
O2972       O  0.12130519  0.88053496  0.77024329    -0.38230
O2973       O  0.13843608  0.79261164  0.73523855    -0.38940
O2974       O  0.13352725  0.78994796  0.76387799    -0.39000
C2975       C  0.03923740  0.79609414  0.67620746    -0.11280
C2976       C  0.05528676  0.78674444  0.67417974     0.05720
C2977       C  0.05524104  0.77033089  0.66509755    -0.06570
C2978       C  0.03942622  0.76420108  0.65728740    -0.07310
C2979       C  0.02348537  0.77377738  0.65868765    -0.01870
C2980       C  0.02328557  0.78994571  0.66834510     0.04950
N2981       N  0.00757691  0.80090989  0.66915688     0.67460
H2982       H  0.03940670  0.80888632  0.68280667     0.16360
H2983       H  0.03948058  0.75161659  0.65028517     0.16070
N2984       N  0.07103055  0.75955984  0.66406663     0.75160
O2985       O  0.00512957  0.81094285  0.68244110    -0.38290
O2986       O  0.99755414  0.80260726  0.65559481    -0.38230
O2987       O  0.08113689  0.75795708  0.67757633    -0.38940
O2988       O  0.07361326  0.74978039  0.65061806    -0.39000
C2989       C  0.09000316  0.00412794  0.57573995    -0.11280
C2990       C  0.08054469  0.02015680  0.57780354     0.05720
C2991       C  0.06436343  0.01975399  0.58755138    -0.06570
C2992       C  0.05837924  0.00374681  0.59519381    -0.07310
C2993       C  0.06795644  0.98778177  0.59346027    -0.01870
C2994       C  0.08410433  0.98808725  0.58362916     0.04950
N2995       N  0.09523688  0.97265006  0.58231797     0.67460
H2996       H  0.10255715  0.00416656  0.56857897     0.16360
H2997       H  0.04595283  0.00387711  0.60257965     0.16070
N2998       N  0.05373536  0.03539227  0.58992548     0.75160
O2999       O  0.10198983  0.96861540  0.56738743    -0.38290
O3000       O  0.10120355  0.96535014  0.59642719    -0.38230
O3001       O  0.04675248  0.04293859  0.57643731    -0.38940
O3002       O  0.04863739  0.03962622  0.60545759    -0.39000
C3003       C  0.08600812  0.88348482  0.63439542    -0.11280
C3004       C  0.07300677  0.89291554  0.64402932     0.05720
C3005       C  0.06901993  0.88726399  0.66175962    -0.06570
C3006       C  0.07765968  0.87251463  0.66917446    -0.07310
C3007       C  0.09025817  0.86270059  0.65949347    -0.01870
C3008       C  0.09479595  0.86857745  0.64194194     0.04950
N3009       N  0.10829674  0.85984752  0.63164877     0.67460
H3010       H  0.08957910  0.88787010  0.62099035     0.16360
H3011       H  0.07400583  0.86848015  0.68267273     0.16070
N3012       N  0.05614146  0.89621349  0.67259841     0.75160
O3013       O  0.10564887  0.85679591  0.61520742    -0.38290
O3014       O  0.12390421  0.85844188  0.63790266    -0.38230
O3015       O  0.03973192  0.89380904  0.66965318    -0.38940
O3016       O  0.06099175  0.90327258  0.68714384    -0.39000
C3017       C  0.08958260  0.98430756  0.68949372    -0.11280
C3018       C  0.07996057  0.98293872  0.70558132     0.05720
C3019       C  0.06313821  0.97436970  0.70540920    -0.06570
C3020       C  0.05663873  0.96708786  0.68934809    -0.07310
C3021       C  0.06655661  0.96810549  0.67341857    -0.01870
C3022       C  0.08319621  0.97693182  0.67359431     0.04950
N3023       N  0.09385945  0.97860477  0.65776549     0.67460
H3024       H  0.10243582  0.99090600  0.68924256     0.16360
H3025       H  0.04387837  0.96031521  0.68942348     0.16070
N3026       N  0.05274184  0.97236370  0.72139524     0.75160
O3027       O  0.09584322  0.99369812  0.65052567    -0.38290
O3028       O  0.10422181  0.96611174  0.65352102    -0.38230
O3029       O  0.04572976  0.98585667  0.72845158    -0.38940
O3030       O  0.04767935  0.95707024  0.72628003    -0.39000
C3031       C  0.97427919  0.91796361  0.58277056    -0.11280
C3032       C  0.96247137  0.91081350  0.59554290     0.05720
C3033       C  0.96701666  0.91189289  0.61399081    -0.06570
C3034       C  0.98306304  0.92021321  0.61908016    -0.07310
C3035       C  0.99511006  0.92684029  0.60625340    -0.01870
C3036       C  0.99041371  0.92608232  0.58784671     0.04950
N3037       N  0.00156465  0.93384740  0.57419416     0.67460
H3038       H  0.97080377  0.91739223  0.56865028     0.16360
H3039       H  0.98673525  0.92040654  0.63316524     0.16070
N3040       N  0.95639505  0.90340104  0.62761732     0.75160
O3041       O  0.00225170  0.92701022  0.55877824    -0.38290
O3042       O  0.00881345  0.94878753  0.57669196    -0.38230
O3043       O  0.95141361  0.88748759  0.62569018    -0.38940
O3044       O  0.95477910  0.91054236  0.64281392    -0.39000
C3045       C  0.93826853  0.81441569  0.58313802    -0.11280
C3046       C  0.94520234  0.83069940  0.58900728     0.05720
C3047       C  0.95970190  0.83081763  0.60119790    -0.06570
C3048       C  0.96621050  0.81465250  0.60795686    -0.07310
C3049       C  0.95892098  0.79833983  0.60261081    -0.01870
C3050       C  0.94496313  0.79821174  0.58977588     0.04950
N3051       N  0.93646376  0.78199849  0.58443737     0.67460
H3052       H  0.92701469  0.81428975  0.57396592     0.16360
H3053       H  0.97712148  0.81480898  0.61754031     0.16070
N3054       N  0.96798477  0.84714804  0.60680009     0.75160
O3055       O  0.91970880  0.78063503  0.58537100    -0.38290
O3056       O  0.94509876  0.77059803  0.57567312    -0.38230
O3057       O  0.97458915  0.84840588  0.62236017    -0.38940
O3058       O  0.97058119  0.85958114  0.59561964    -0.39000
C3059       C  0.84021314  0.86471240  0.62222236    -0.11280
C3060       C  0.83894505  0.84610067  0.62384647     0.05720
C3061       C  0.85307981  0.83560564  0.61730364    -0.06570
C3062       C  0.86783472  0.84369981  0.60924203    -0.07310
C3063       C  0.86900374  0.86224764  0.60710782    -0.01870
C3064       C  0.85502094  0.87290502  0.61390518     0.04950
N3065       N  0.85503925  0.89184112  0.61162609     0.67460
H3066       H  0.82937398  0.87294936  0.62695345     0.16360
H3067       H  0.87840600  0.83523709  0.60429033     0.16070
N3068       N  0.85270669  0.81662270  0.61862425     0.75160
O3069       O  0.84151363  0.89948410  0.60502178    -0.38290
O3070       O  0.86685566  0.90108099  0.61924664    -0.38230
O3071       O  0.84537240  0.80774439  0.60632197    -0.38940
O3072       O  0.86289839  0.80883683  0.62966634    -0.39000
C3073       C  0.76958555  0.85062029  0.58240039    -0.11280
C3074       C  0.76495128  0.83376418  0.58906368     0.05720
C3075       C  0.75307321  0.82294950  0.57913486    -0.06570
C3076       C  0.74616103  0.82943968  0.56278803    -0.07310
C3077       C  0.75046800  0.84657229  0.55659524    -0.01870
C3078       C  0.76265286  0.85705517  0.56630553     0.04950
N3079       N  0.76880958  0.87388792  0.55956659     0.67460
H3080       H  0.77908152  0.85882136  0.58957795     0.16360
H3081       H  0.73662971  0.82148474  0.55538616     0.16070
N3082       N  0.74705741  0.80601547  0.58579966     0.75160
O3083       O  0.77109541  0.88675291  0.57012486    -0.38290
O3084       O  0.77457973  0.87506505  0.54370924    -0.38230
O3085       O  0.74108214  0.80465230  0.60158087    -0.38940
O3086       O  0.74472659  0.79330327  0.57506469    -0.39000
C3087       C  0.20947575  0.64551262  0.66448593    -0.11280
C3088       C  0.20676095  0.66396505  0.66471768     0.05720
C3089       C  0.22014202  0.67512406  0.67193023    -0.06570
C3090       C  0.23633988  0.66760638  0.67761575    -0.07310
C3091       C  0.23939295  0.64924257  0.67660970    -0.01870
C3092       C  0.22574718  0.63800814  0.67001566     0.04950
N3093       N  0.22861774  0.61929873  0.66739528     0.67460
H3094       H  0.19942357  0.63699770  0.65855642     0.16360
H3095       H  0.24660677  0.67615294  0.68310888     0.16070
N3096       N  0.21743135  0.69397359  0.67379289     0.75160
O3097       O  0.21591207  0.60848083  0.66957438    -0.38290
O3098       O  0.24276530  0.61392971  0.66005605    -0.38230
O3099       O  0.20235665  0.69993871  0.67825600    -0.38940
O3100       O  0.23053220  0.70451166  0.67311143    -0.39000
C3101       C  0.16027815  0.74866060  0.65596650    -0.11280
C3102       C  0.14782668  0.73571396  0.65071928     0.05720
C3103       C  0.12949944  0.73952480  0.65166916    -0.06570
C3104       C  0.12397251  0.75603801  0.65793448    -0.07310
C3105       C  0.13621074  0.76879363  0.66391576    -0.01870
C3106       C  0.15477573  0.76522251  0.66291211     0.04950
N3107       N  0.16808650  0.77756296  0.66935887     0.67460
H3108       H  0.17435757  0.74559049  0.65503380     0.16360
H3109       H  0.10983502  0.75884481  0.65845294     0.16070
N3110       N  0.11631464  0.72700813  0.64581804     0.75160
O3111       O  0.18404532  0.77257787  0.67145482    -0.38290
O3112       O  0.16423490  0.79351969  0.67271927    -0.38230
O3113       O  0.11388753  0.71278589  0.65457591    -0.38940
O3114       O  0.10503866  0.73157889  0.63404443    -0.39000
C3115       C  0.20486375  0.67861757  0.57420610    -0.11280
C3116       C  0.18916289  0.67044410  0.58030052     0.05720
C3117       C  0.18222628  0.65562004  0.57104983    -0.06570
C3118       C  0.19162794  0.64878994  0.55651663    -0.07310
C3119       C  0.20761814  0.65650811  0.55070356    -0.01870
C3120       C  0.21441192  0.67164544  0.55962338     0.04950
N3121       N  0.23141594  0.67926239  0.55501789     0.67460
H3122       H  0.21032596  0.68974069  0.58158137     0.16360
H3123       H  0.18616982  0.63749462  0.54939462     0.16070
N3124       N  0.16546422  0.64763627  0.57592322     0.75160
O3125       O  0.23416653  0.69566258  0.55725165    -0.38290
O3126       O  0.24447002  0.66932785  0.55140399    -0.38230
O3127       O  0.15237622  0.65730441  0.58003964    -0.38940
O3128       O  0.16298582  0.63117566  0.57380488    -0.39000
C3129       C  0.07482754  0.59659457  0.52184215    -0.11280
C3130       C  0.05703026  0.60225286  0.52077500     0.05720
C3131       C  0.04794115  0.60066466  0.50414277    -0.06570
C3132       C  0.05703396  0.59392567  0.48907500    -0.07310
C3133       C  0.07493218  0.58840682  0.49015060    -0.01870
C3134       C  0.08381251  0.58962912  0.50697247     0.04950
N3135       N  0.10208253  0.58439751  0.50929624     0.67460
H3136       H  0.08194617  0.59760283  0.53449150     0.16360
H3137       H  0.04997038  0.59288222  0.47640823     0.16070
N3138       N  0.02932479  0.60473512  0.50244541     0.75160
O3139       O  0.11284852  0.59497960  0.51672873    -0.38290
O3140       O  0.10615969  0.56814538  0.50851520    -0.38230
O3141       O  0.02379932  0.62027530  0.50540125    -0.38940
O3142       O  0.01902401  0.59378861  0.49489457    -0.39000
C3143       C  0.08941534  0.63905914  0.61372672    -0.11280
C3144       C  0.08600066  0.64175341  0.59532095     0.05720
C3145       C  0.09752105  0.65295704  0.58544430    -0.06570
C3146       C  0.11164231  0.66153098  0.59402003    -0.07310
C3147       C  0.11526459  0.65884660  0.61236454    -0.01870
C3148       C  0.10398206  0.64732761  0.62230673     0.04950
N3149       N  0.10659862  0.64437138  0.64114694     0.67460
H3150       H  0.08057328  0.63069704  0.62158471     0.16360
H3151       H  0.12005407  0.67018841  0.58601665     0.16070
N3152       N  0.09534178  0.65551950  0.56651826     0.75160
O3153       O  0.09404946  0.64757352  0.65190509    -0.38290
O3154       O  0.11973125  0.63526857  0.64652187    -0.38230
O3155       O  0.08957565  0.67016402  0.56050383    -0.38940
O3156       O  0.10146651  0.64414579  0.55580292    -0.39000
C3157       C  0.02191725  0.68166325  0.60290241    -0.11280
C3158       C  0.01364613  0.67457102  0.58758715     0.05720
C3159       C  0.99921516  0.68384507  0.57959850    -0.06570
C3160       C  0.99331114  0.69980155  0.58739090    -0.07310
C3161       C  0.00116041  0.70639597  0.60316648    -0.01870
C3162       C  0.01605893  0.69751038  0.61065500     0.04950
N3163       N  0.02572260  0.70461688  0.62572425     0.67460
H3164       H  0.03333355  0.67491239  0.60875685     0.16360
H3165       H  0.98180289  0.70653705  0.58172157     0.16070
N3166       N  0.98964870  0.67678498  0.56448634     0.75160
O3167       O  0.03306329  0.69426699  0.63694509    -0.38290
O3168       O  0.02907366  0.72105098  0.62647747    -0.38230
O3169       O  0.98541208  0.66054152  0.56414908    -0.38940
O3170       O  0.98303837  0.68719822  0.55287496    -0.39000
C3171       C  0.96453620  0.57558440  0.59002203    -0.11280
C3172       C  0.95980398  0.58026447  0.60760115     0.05720
C3173       C  0.97163765  0.59083596  0.61777034    -0.06570
C3174       C  0.98768648  0.59663231  0.61006933    -0.07310
C3175       C  0.99227781  0.59226242  0.59239426    -0.01870
C3176       C  0.98071765  0.58125585  0.58225322     0.04950
N3177       N  0.98520102  0.57547715  0.56437067     0.67460
H3178       H  0.95550840  0.56732774  0.58233599     0.16360
H3179       H  0.99631213  0.60534194  0.61773156     0.16070
N3180       N  0.96694575  0.59715541  0.63525223     0.75160
O3181       O  0.97334291  0.56897381  0.55428057    -0.38290
O3182       O  0.00123253  0.57493026  0.55927704    -0.38230
O3183       O  0.96529930  0.58632041  0.64815847    -0.38940
O3184       O  0.96775151  0.61358824  0.63850568    -0.39000
C3185       C  0.87344903  0.53079734  0.67532063    -0.11280
C3186       C  0.89001168  0.53937425  0.67679255     0.05720
C3187       C  0.89928716  0.53877305  0.69337328    -0.06570
C3188       C  0.89156387  0.52975500  0.70804853    -0.07310
C3189       C  0.87469987  0.52173460  0.70661137    -0.01870
C3190       C  0.86582210  0.52181041  0.68985688     0.04950
N3191       N  0.84944800  0.51224307  0.68715067     0.67460
H3192       H  0.86650975  0.53067484  0.66252799     0.16360
H3193       H  0.89832298  0.52985475  0.72093141     0.16070
N3194       N  0.91584638  0.54805133  0.69593993     0.75160
O3195       O  0.83740313  0.51865364  0.67714014    -0.38290
O3196       O  0.84812089  0.49632768  0.69248604    -0.38230
O3197       O  0.91752415  0.56389982  0.69049308    -0.38940
O3198       O  0.92768768  0.54153136  0.70612203    -0.39000
C3199       C  0.81362769  0.74978990  0.68585313    -0.11280
C3200       C  0.81556106  0.73567819  0.67373713     0.05720
C3201       C  0.81007416  0.73827227  0.65570038    -0.06570
C3202       C  0.80388964  0.75504685  0.65010813    -0.07310
C3203       C  0.80287715  0.76941694  0.66204486    -0.01870
C3204       C  0.80756309  0.76653650  0.68023660     0.04950
N3205       N  0.80686848  0.78051515  0.69315251     0.67460
H3206       H  0.81766334  0.74810592  0.69975075     0.16360
H3207       H  0.80012410  0.75688439  0.63615723     0.16070
N3208       N  0.81125674  0.72436235  0.64269932     0.75160
O3209       O  0.79697037  0.77883232  0.70673430    -0.38290
O3210       O  0.81882284  0.79233916  0.69311284    -0.38230
O3211       O  0.80220132  0.71034985  0.64477921    -0.38940
O3212       O  0.81845758  0.72742230  0.62768783    -0.39000
C3213       C  0.80441831  0.66601823  0.76279282    -0.11280
C3214       C  0.81605312  0.65643615  0.77405788     0.05720
C3215       C  0.83438211  0.65556398  0.76964987    -0.06570
C3216       C  0.84058522  0.66459452  0.75428870    -0.07310
C3217       C  0.82885973  0.67374977  0.74276893    -0.01870
C3218       C  0.81056661  0.67481406  0.74728228     0.04950
N3219       N  0.79818532  0.68506028  0.73660624     0.67460
H3220       H  0.79041677  0.66683368  0.76625551     0.16360
H3221       H  0.85449817  0.66338829  0.75059181     0.16070
N3222       N  0.84655756  0.64442487  0.77959268     0.75160
O3223       O  0.78194821  0.68064588  0.73591051    -0.38290
O3224       O  0.80289286  0.69972173  0.72973394    -0.38230
O3225       O  0.84197124  0.62891143  0.78426323    -0.38940
O3226       O  0.86274429  0.64883980  0.78102400    -0.39000
C3227       C  0.85802557  0.63574003  0.64937615    -0.11280
C3228       C  0.86630746  0.64247621  0.66489146     0.05720
C3229       C  0.88245998  0.63461891  0.67081835    -0.06570
C3230       C  0.89026880  0.62113151  0.66079559    -0.07310
C3231       C  0.88219754  0.61436951  0.64522662    -0.01870
C3232       C  0.86573606  0.62178521  0.63947867     0.04950
N3233       N  0.85684955  0.61573347  0.62356125     0.67460
H3234       H  0.84574554  0.64171580  0.64457105     0.16360
H3235       H  0.90255429  0.61536065  0.66584862     0.16070
N3236       N  0.89095567  0.63967913  0.68731006     0.75160
O3237       O  0.84010344  0.61396722  0.62345997    -0.38290
O3238       O  0.86519208  0.61510386  0.60888533    -0.38230
O3239       O  0.88265400  0.63805959  0.70195645    -0.38940
O3240       O  0.90752647  0.64265439  0.68763686    -0.39000
C3241       C  0.92834963  0.72842124  0.67588446    -0.11280
C3242       C  0.92978824  0.72968280  0.65709366     0.05720
C3243       C  0.91503928  0.72473809  0.64636310    -0.06570
C3244       C  0.89925067  0.71921104  0.65457058    -0.07310
C3245       C  0.89768422  0.71785092  0.67333607    -0.01870
C3246       C  0.91244053  0.72274121  0.68415705     0.04950
N3247       N  0.91143506  0.72261239  0.70340137     0.67460
H3248       H  0.93947791  0.73245260  0.68423419     0.16360
H3249       H  0.88829927  0.71518286  0.64598508     0.16070
N3250       N  0.91603172  0.72437671  0.62711154     0.75160
O3251       O  0.92459836  0.71732810  0.71260792    -0.38290
O3252       O  0.89886778  0.73063313  0.71114357    -0.38230
O3253       O  0.92808988  0.71544303  0.61956607    -0.38940
O3254       O  0.90325796  0.73034605  0.61777040    -0.39000
C3255       C  0.40142542  0.02260896  0.41098878    -0.11280
C3256       C  0.38445859  0.02250459  0.41890608     0.05720
C3257       C  0.37562588  0.00598671  0.42129959    -0.06570
C3258       C  0.38403877  0.99019483  0.41593648    -0.07310
C3259       C  0.40082994  0.99039043  0.40760643    -0.01870
C3260       C  0.40970403  0.00691189  0.40538865     0.04950
N3261       N  0.42711728  0.00813116  0.39752122     0.67460
H3262       H  0.40850990  0.03505905  0.40922956     0.16360
H3263       H  0.37685704  0.97775811  0.41733647     0.16070
N3264       N  0.35777886  0.00495460  0.42811349     0.75160
O3265       O  0.43038677  0.02007743  0.38598603    -0.38290
O3266       O  0.43986917  0.99923129  0.40408161    -0.38230
O3267       O  0.34534453  0.01305071  0.42002586    -0.38940
O3268       O  0.35387855  0.99327009  0.43971206    -0.39000
C3269       C  0.31261450  0.10084090  0.47098228    -0.11280
C3270       C  0.31170236  0.08578736  0.46003807     0.05720
C3271       C  0.29506487  0.07738612  0.45730566    -0.06570
C3272       C  0.27976592  0.08451387  0.46536565    -0.07310
C3273       C  0.28068166  0.09992063  0.47592214    -0.01870
C3274       C  0.29741789  0.10813338  0.47867315     0.04950
N3275       N  0.29939018  0.12401377  0.48898006     0.67460
H3276       H  0.32528691  0.10743786  0.47319179     0.16360
H3277       H  0.26700760  0.07814775  0.46303140     0.16070
N3278       N  0.29319697  0.06238327  0.44568401     0.75160
O3279       O  0.30985368  0.12397738  0.50229434    -0.38290
O3280       O  0.29477741  0.13871807  0.48212612    -0.38230
O3281       O  0.30103906  0.04799143  0.44947742    -0.38940
O3282       O  0.28116901  0.06241128  0.43377942    -0.39000
C3283       C  0.33008178  0.09784116  0.35598643    -0.11280
C3284       C  0.32950101  0.11647766  0.35487649     0.05720
C3285       C  0.33814251  0.12662774  0.36827078    -0.06570
C3286       C  0.34696726  0.11774777  0.38247231    -0.07310
C3287       C  0.34692071  0.09908871  0.38380868    -0.01870
C3288       C  0.33878657  0.08902994  0.37008911     0.04950
N3289       N  0.33952936  0.06990487  0.37004638     0.67460
H3290       H  0.32402028  0.08996444  0.34547158     0.16360
H3291       H  0.35287318  0.12547437  0.39318139     0.16070
N3292       N  0.33712029  0.14572058  0.36841065     0.75160
O3293       O  0.32669918  0.06101652  0.36373164    -0.38290
O3294       O  0.35380403  0.06195700  0.37420651    -0.38230
O3295       O  0.32254259  0.15344809  0.36498432    -0.38940
O3296       O  0.34991650  0.15472003  0.37462692    -0.39000
C3297       C  0.34311794  0.06752165  0.26865884    -0.11280
C3298       C  0.33204879  0.05247762  0.26917893     0.05720
C3299       C  0.31417046  0.05436782  0.27493742    -0.06570
C3300       C  0.30797048  0.07121366  0.28011278    -0.07310
C3301       C  0.31929300  0.08609706  0.28009238    -0.01870
C3302       C  0.33697839  0.08425405  0.27379411     0.04950
N3303       N  0.34880347  0.09922543  0.27212452     0.67460
H3304       H  0.35667214  0.06638321  0.26378655     0.16360
H3305       H  0.29450104  0.07245886  0.28517730     0.16070
N3306       N  0.30246190  0.03934211  0.27666064     0.75160
O3307       O  0.36508640  0.09760503  0.27619739    -0.38290
O3308       O  0.34364185  0.11320317  0.26417867    -0.38230
O3309       O  0.30748813  0.02570371  0.28526907    -0.38940
O3310       O  0.28621132  0.04085739  0.27243269    -0.39000
C3311       C  0.97000840  0.08186486  0.38584534    -0.11280
C3312       C  0.95852832  0.07445654  0.39878776     0.05720
C3313       C  0.96407652  0.07425257  0.41700038    -0.06570
C3314       C  0.98040608  0.08225607  0.42181255    -0.07310
C3315       C  0.99167818  0.09008742  0.40893808    -0.01870
C3316       C  0.98630282  0.08995106  0.39066338     0.04950
N3317       N  0.99637821  0.09910881  0.37702779     0.67460
H3318       H  0.96572441  0.08237335  0.37193915     0.16360
H3319       H  0.98453013  0.08210493  0.43577301     0.16070
N3320       N  0.95367881  0.06549659  0.43066349     0.75160
O3321       O  0.99661844  0.09323475  0.36119257    -0.38290
O3322       O  0.00248054  0.11446965  0.37995163    -0.38230
O3323       O  0.94624136  0.05078329  0.42746889    -0.38940
O3324       O  0.95397100  0.07111009  0.44659852    -0.39000
C3325       C  0.06589013  0.11328310  0.49017044    -0.11280
C3326       C  0.05746321  0.10096398  0.47885967     0.05720
C3327       C  0.05631041  0.08301594  0.48457168    -0.06570
C3328       C  0.06376005  0.07783182  0.50113288    -0.07310
C3329       C  0.07254258  0.09006400  0.51224984    -0.01870
C3330       C  0.07350959  0.10807066  0.50667250     0.04950
N3331       N  0.08328011  0.12097344  0.51681849     0.67460
H3332       H  0.06701953  0.12705290  0.48592284     0.16360
H3333       H  0.06300208  0.06397518  0.50517492     0.16070
N3334       N  0.04736704  0.06989909  0.47399171     0.75160
O3335       O  0.09496885  0.13039446  0.50913555    -0.38290
O3336       O  0.07807590  0.12521271  0.53230148    -0.38230
O3337       O  0.05459220  0.06428525  0.45984472    -0.38940
O3338       O  0.03466256  0.06116191  0.48079292    -0.39000
C3339       C  0.01158071  0.18408914  0.42064352    -0.11280
C3340       C  0.01558866  0.17033687  0.40861727     0.05720
C3341       C  0.01280575  0.17335080  0.39001650    -0.06570
C3342       C  0.00587521  0.18955304  0.38402183    -0.07310
C3343       C  0.00203644  0.20339694  0.39591286    -0.01870
C3344       C  0.00516808  0.20067691  0.41451870     0.04950
N3345       N  0.00266810  0.21465335  0.42728209     0.67460
H3346       H  0.01394553  0.18213893  0.43488219     0.16360
H3347       H  0.00371149  0.19133441  0.36972321     0.16070
N3348       N  0.01727919  0.16033893  0.37682732     0.75160
O3349       O  0.99566918  0.21123430  0.44231358    -0.38290
O3350       O  0.01037100  0.22942273  0.42498160    -0.38230
O3351       O  0.00536485  0.15468141  0.36630605    -0.38940
O3352       O  0.03346108  0.15745725  0.37323841    -0.39000
C3353       C  0.23427980  0.16286534  0.35123997    -0.11280
C3354       C  0.21895527  0.16357661  0.34033652     0.05720
C3355       C  0.22030867  0.15877621  0.32204887    -0.06570
C3356       C  0.23683311  0.15281573  0.31540625    -0.07310
C3357       C  0.25209818  0.15215771  0.32639487    -0.01870
C3358       C  0.25072685  0.15705950  0.34462369     0.04950
N3359       N  0.26556576  0.15536780  0.35683869     0.67460
H3360       H  0.23329706  0.16619447  0.36533948     0.16360
H3361       H  0.23798519  0.14937523  0.30135431     0.16070
N3362       N  0.20551323  0.16081336  0.30986487     0.75160
O3363       O  0.26747313  0.16631675  0.36947250    -0.38290
O3364       O  0.27521067  0.14160988  0.35667196    -0.38230
O3365       O  0.19561590  0.17435616  0.31072734    -0.38940
O3366       O  0.20397678  0.15062441  0.29655173    -0.39000
C3367       C  0.14064879  0.23692473  0.35697900    -0.11280
C3368       C  0.15680466  0.23069511  0.35012326     0.05720
C3369       C  0.16684179  0.24155953  0.33816016    -0.06570
C3370       C  0.15973239  0.25822704  0.33293802    -0.07310
C3371       C  0.14329045  0.26414442  0.33953665    -0.01870
C3372       C  0.13381763  0.25352973  0.35194789     0.04950
N3373       N  0.11724960  0.25941846  0.35953657     0.67460
H3374       H  0.13327139  0.22872342  0.36641994     0.16360
H3375       H  0.16679058  0.26648624  0.32332660     0.16070
N3376       N  0.18407887  0.23624096  0.33138423     0.75160
O3377       O  0.10538418  0.24826278  0.36382621    -0.38290
O3378       O  0.11525848  0.27547573  0.36390455    -0.38230
O3379       O  0.18946059  0.22038731  0.33271932    -0.38940
O3380       O  0.19410157  0.24752076  0.32383712    -0.39000
C3381       C  0.09021460  0.15484937  0.39728635    -0.11280
C3382       C  0.08912102  0.13631739  0.39965527     0.05720
C3383       C  0.10381828  0.12578959  0.39426559    -0.06570
C3384       C  0.11902079  0.13409865  0.38672899    -0.07310
C3385       C  0.12010013  0.15270353  0.38468402    -0.01870
C3386       C  0.10541434  0.16307472  0.39019212     0.04950
N3387       N  0.10565421  0.18206746  0.38884671     0.67460
H3388       H  0.07919302  0.16321532  0.40135503     0.16360
H3389       H  0.13030308  0.12596550  0.38294409     0.16070
N3390       N  0.10417316  0.10695652  0.39740397     0.75160
O3391       O  0.09514950  0.18978266  0.37805462    -0.38290
O3392       O  0.11305669  0.19098787  0.40107896    -0.38230
O3393       O  0.09243378  0.09712476  0.39045744    -0.38940
O3394       O  0.11780062  0.09987582  0.40442972    -0.39000
C3395       C  0.21158247  0.16823252  0.42404992    -0.11280
C3396       C  0.19342055  0.16512921  0.42093050     0.05720
C3397       C  0.18306424  0.15593871  0.43380733    -0.06570
C3398       C  0.19140925  0.14965845  0.44940031    -0.05510
C3399       C  0.20969576  0.15207334  0.45222160    -0.01870
C3400       C  0.22003799  0.16170506  0.43959532     0.04950
N3401       N  0.23904117  0.16408217  0.44167313     0.67460
H3402       H  0.21930968  0.17526302  0.41397018     0.16360
H3403       H  0.18370799  0.14212306  0.45913498     0.16070
N3404       N  0.16424350  0.15276950  0.43139347     0.75160
O3405       O  0.24872927  0.16666557  0.42805713    -0.38290
O3406       O  0.24611759  0.16491732  0.45704033    -0.38230
O3407       O  0.15795922  0.14872499  0.41622511    -0.38940
O3408       O  0.15410496  0.15207516  0.44488548    -0.39000
C3409       C  0.39396690  0.91571322  0.98876993    -0.11280
C3410       C  0.40273417  0.89923111  0.98902704     0.05720
C3411       C  0.40520638  0.89039857  0.00573832    -0.06570
C3412       C  0.39808285  0.89786070  0.02143723    -0.07310
C3413       C  0.38872835  0.91405754  0.02098713    -0.01870
C3414       C  0.38683586  0.92307140  0.00432678     0.04950
N3415       N  0.37707022  0.93935724  0.00264300     0.67460
H3416       H  0.39188545  0.92274565  0.97618101     0.16360
H3417       H  0.39987441  0.89088479  0.03409693     0.16070
N3418       N  0.41500440  0.87406063  0.00715938     0.75160
O3419       O  0.38485444  0.95312372  0.99685278    -0.38290
O3420       O  0.36024254  0.93896999  0.00290593    -0.38230
O3421       O  0.43076400  0.87326682  0.00130854    -0.38940
O3422       O  0.40924412  0.86160148  0.01701208    -0.39000
C3423       C  0.43571744  0.81238546  0.92677533    -0.11280
C3424       C  0.44067790  0.82877958  0.91919884     0.05720
C3425       C  0.45171846  0.82918444  0.90383107    -0.06570
C3426       C  0.45683459  0.81317413  0.89599085    -0.07310
C3427       C  0.45150281  0.79677170  0.90320422    -0.01870
C3428       C  0.44072864  0.79629750  0.91877306     0.04950
N3429       N  0.43372530  0.77987337  0.92584297     0.67460
H3430       H  0.42688892  0.81212330  0.93826860     0.16360
H3431       H  0.46544525  0.81352482  0.88432810     0.16070
N3432       N  0.45814661  0.84563170  0.89622590     0.75160
O3433       O  0.43109057  0.77813674  0.94250182    -0.38290
O3434       O  0.42754214  0.76826745  0.91535360    -0.38230
O3435       O  0.46324673  0.85806558  0.90631080    -0.38940
O3436       O  0.46086361  0.84694574  0.87954213    -0.39000
C3437       C  0.23354602  0.85805398  0.85615222    -0.11280
C3438       C  0.24194224  0.84352957  0.84810088     0.05720
C3439       C  0.23446899  0.83581868  0.83248105    -0.06570
C3440       C  0.21844192  0.84289139  0.82562997    -0.07310
C3441       C  0.20992762  0.85722918  0.83389147    -0.01870
C3442       C  0.21762766  0.86514545  0.84924556     0.04950
N3443       N  0.20923945  0.87974471  0.85843562     0.67460
H3444       H  0.23937638  0.86374761  0.86814975     0.16360
H3445       H  0.21224514  0.83693031  0.81396569     0.16070
N3446       N  0.24256643  0.82085868  0.82356876     0.75160
O3447       O  0.21205059  0.88205731  0.87498513    -0.38290
O3448       O  0.20026928  0.89124506  0.84991380    -0.38230
O3449       O  0.25431809  0.81148838  0.83123786    -0.38940
O3450       O  0.23764949  0.81664203  0.80793331    -0.39000
C3451       C  0.33972919  0.86385015  0.89287071    -0.11280
C3452       C  0.33777021  0.84523532  0.89300491     0.05720
C3453       C  0.35079231  0.83471075  0.90182637    -0.06570
C3454       C  0.36491537  0.84300710  0.91078302    -0.07310
C3455       C  0.36675102  0.86158240  0.91104013    -0.01870
C3456       C  0.35393408  0.87221585  0.90200545     0.04950
N3457       N  0.35434731  0.89131250  0.90297829     0.67460
H3458       H  0.32948086  0.87197823  0.88663163     0.16360
H3459       H  0.37490905  0.83474141  0.91727691     0.16070
N3460       N  0.35009354  0.81559442  0.90161132     0.75160
O3461       O  0.34796356  0.90059326  0.89030687    -0.38290
O3462       O  0.35859057  0.89887109  0.91746043    -0.38230
O3463       O  0.34662584  0.80752678  0.88720638    -0.38940
O3464       O  0.35510672  0.80672440  0.91517999    -0.39000
C3465       C  0.25244723  0.83047962  0.93914384    -0.11280
C3466       C  0.26617253  0.83930557  0.92995764     0.05720
C3467       C  0.27340322  0.85507593  0.93709259    -0.06570
C3468       C  0.26614717  0.86221156  0.95260960    -0.07310
C3469       C  0.25205150  0.85379938  0.96165205    -0.01870
C3470       C  0.24539000  0.83745539  0.95504083     0.04950
N3471       N  0.23135340  0.82794948  0.96393741     0.67460
H3472       H  0.24696143  0.81827970  0.93378248     0.16360
H3473       H  0.27177301  0.87447421  0.95767351     0.16070
N3474       N  0.28831104  0.86390355  0.92891058     0.75160
O3475       O  0.21795089  0.82283828  0.95506088    -0.38290
O3476       O  0.23400031  0.82155409  0.97943763    -0.38230
O3477       O  0.28767442  0.88040044  0.92572116    -0.38940
O3478       O  0.30277591  0.85564375  0.92665165    -0.39000
C3479       C  0.89427302  0.89911821  0.49258612    -0.11280
C3480       C  0.88033653  0.91160491  0.49318513     0.05720
C3481       C  0.87500186  0.91813470  0.51016283    -0.06570
C3482       C  0.88379893  0.91237164  0.52577859    -0.07310
C3483       C  0.89751267  0.89970279  0.52527103    -0.01870
C3484       C  0.90301185  0.89319531  0.50833521     0.04950
N3485       N  0.91770856  0.88107594  0.50673434     0.67460
H3486       H  0.89866511  0.89415934  0.47971613     0.16360
H3487       H  0.87916680  0.91725426  0.53859940     0.16070
N3488       N  0.85998651  0.92977434  0.51206706     0.75160
O3489       O  0.91711194  0.86877010  0.49530848    -0.38290
O3490       O  0.93231120  0.88436650  0.51451867    -0.38230
O3491       O  0.84474728  0.92467909  0.50701017    -0.38940
O3492       O  0.86121007  0.94326165  0.52198603    -0.39000
C3493       C  0.86295931  0.99507818  0.42829016    -0.11280
C3494       C  0.87303347  0.97938746  0.42651419     0.05720
C3495       C  0.89001629  0.98062599  0.41832783    -0.06570
C3496       C  0.89638861  0.99716383  0.41230288    -0.07310
C3497       C  0.88617590  0.01278789  0.41361807    -0.01870
C3498       C  0.86926749  0.01166035  0.42201874     0.04950
N3499       N  0.85807519  0.02697349  0.42394210     0.67460
H3500       H  0.84996959  0.99450772  0.43459734     0.16360
H3501       H  0.90928092  0.99757952  0.40577927     0.16070
N3502       N  0.90076649  0.96521200  0.41523101     0.75160
O3503       O  0.84183358  0.02611106  0.41950510    -0.38290
O3504       O  0.86337854  0.03993999  0.43320417    -0.38230
O3505       O  0.89560222  0.95374069  0.40406723    -0.38940
O3506       O  0.91679732  0.96502302  0.42045441    -0.39000
C3507       C  0.79997326  0.91218615  0.48799781    -0.11280
C3508       C  0.80040497  0.91431218  0.46933405     0.05720
C3509       C  0.78537353  0.90958594  0.45885440    -0.06570
C3510       C  0.77029819  0.90257913  0.46755297    -0.07310
C3511       C  0.77018203  0.89968985  0.48618443    -0.01870
C3512       C  0.78498201  0.90508087  0.49661667     0.04950
N3513       N  0.78483112  0.90391102  0.51589137     0.67460
H3514       H  0.81147961  0.91600862  0.49590777     0.16360
H3515       H  0.75894913  0.89835465  0.45960690     0.16070
N3516       N  0.78525579  0.91124713  0.43953968     0.75160
O3517       O  0.79912776  0.90098859  0.52442522    -0.38290
O3518       O  0.77106260  0.90834905  0.52448045    -0.38230
O3519       O  0.79936737  0.90927702  0.43058416    -0.38940
O3520       O  0.77066484  0.91301397  0.43120183    -0.39000
C3521       C  0.80268482  0.83642296  0.25405870    -0.11280
C3522       C  0.81456860  0.83908391  0.26843110     0.05720
C3523       C  0.83277412  0.83486119  0.26600822    -0.06570
C3524       C  0.83867958  0.82896435  0.24918022    -0.07310
C3525       C  0.82688408  0.82702087  0.23457769    -0.01870
C3526       C  0.80857483  0.83066321  0.23725826     0.04950
N3527       N  0.79574891  0.82914303  0.22305846     0.67460
H3528       H  0.78866561  0.83954606  0.25560863     0.16360
H3529       H  0.85272710  0.82607166  0.24750500     0.16070
N3530       N  0.84558402  0.83704479  0.28014830     0.75160
O3531       O  0.78233330  0.81921231  0.22518550    -0.38290
O3532       O  0.79556800  0.84060974  0.21059246    -0.38230
O3533       O  0.84428241  0.82782491  0.29431675    -0.38940
O3534       O  0.85985420  0.84545507  0.27714728    -0.39000
C3535       C  0.81505557  0.90485503  0.36790430    -0.11280
C3536       C  0.81797980  0.88675813  0.36438675     0.05720
C3537       C  0.82870899  0.87686435  0.37655073    -0.06570
C3538       C  0.83618157  0.88529589  0.39169584    -0.07310
C3539       C  0.83317845  0.90343812  0.39509778    -0.01870
C3540       C  0.82228376  0.91316045  0.38297999     0.04950
N3541       N  0.81828381  0.93155070  0.38568561     0.67460
H3542       H  0.80693153  0.91281029  0.35885412     0.16360
H3543       H  0.84422243  0.87751970  0.40096857     0.16070
N3544       N  0.83168258  0.85822713  0.37419830     0.75160
O3545       O  0.82456825  0.94307246  0.37504522    -0.38290
O3546       O  0.80564487  0.93576715  0.39596642    -0.38230
O3547       O  0.84117253  0.85293783  0.36133862    -0.38940
O3548       O  0.82793147  0.84752806  0.38677276    -0.39000
C3549       C  0.79452835  0.93267225  0.28424588    -0.11280
C3550       C  0.80677057  0.91857803  0.28561092     0.05720
C3551       C  0.82441087  0.92104461  0.27949176    -0.06570
C3552       C  0.82972631  0.93775648  0.27346390    -0.07310
C3553       C  0.81784521  0.95212056  0.27279734    -0.01870
C3554       C  0.79987404  0.94954515  0.27799222     0.04950
N3555       N  0.78722081  0.96389794  0.27804123     0.67460
H3556       H  0.78101295  0.93084172  0.28902584     0.16360
H3557       H  0.84333229  0.93941230  0.26885699     0.16070
N3558       N  0.83705454  0.90670052  0.27897578     0.75160
O3559       O  0.77109027  0.96095494  0.27414489    -0.38290
O3560       O  0.79141930  0.97872730  0.28467058    -0.38230
O3561       O  0.83288099  0.89218102  0.27166235    -0.38940
O3562       O  0.85307206  0.90932761  0.28352581    -0.39000
C3563       C  0.47211328  0.33438080  0.08606168    -0.11280
C3564       C  0.45398110  0.33369979  0.08148181     0.05720
C3565       C  0.44407458  0.31805314  0.08490639    -0.06570
C3566       C  0.45275162  0.30339277  0.09279031    -0.07310
C3567       C  0.47078027  0.30417559  0.09773755    -0.01870
C3568       C  0.48072736  0.31988577  0.09440168     0.04950
N3569       N  0.49927569  0.32157187  0.09945513     0.67460
H3570       H  0.47935992  0.34668473  0.08390694     0.16360
H3571       H  0.44529296  0.29131370  0.09545824     0.16070
N3572       N  0.42522396  0.31699287  0.08111622     0.75160
O3573       O  0.50890434  0.33336759  0.09219642    -0.38290
O3574       O  0.50584089  0.31236363  0.11207231    -0.38230
O3575       O  0.41831321  0.32608727  0.06859260    -0.38940
O3576       O  0.41552628  0.30612085  0.08964178    -0.39000
C3577       C  0.25307126  0.36048395  0.16483265    -0.11280
C3578       C  0.25456567  0.34248725  0.16019711     0.05720
C3579       C  0.23966287  0.33116730  0.16275326    -0.06570
C3580       C  0.22348361  0.33833270  0.16875076    -0.07310
C3581       C  0.22174785  0.35646138  0.17274730    -0.01870
C3582       C  0.23686015  0.36766099  0.17084753     0.04950
N3583       N  0.23581672  0.38647507  0.17379159     0.67460
H3584       H  0.26427798  0.36933780  0.16266109     0.16360
H3585       H  0.21220168  0.32951462  0.17064625     0.16070
N3586       N  0.24075681  0.31234925  0.15969589     0.75160
O3587       O  0.24842210  0.39436368  0.18170923    -0.38290
O3588       O  0.22415363  0.39560225  0.16565497    -0.38230
O3589       O  0.25376959  0.30355002  0.16586879    -0.38940
O3590       O  0.22760786  0.30412581  0.15313088    -0.39000
C3591       C  0.34876500  0.35584151  0.09147922    -0.11280
C3592       C  0.34797422  0.35360806  0.11020492     0.05720
C3593       C  0.36196270  0.36043647  0.12096003    -0.06570
C3594       C  0.37650169  0.36896602  0.11256122    -0.07310
C3595       C  0.37756776  0.37036953  0.09376324    -0.01870
C3596       C  0.36321128  0.36427012  0.08313766     0.04950
N3597       N  0.36295046  0.36675688  0.06393986     0.67460
H3598       H  0.33782793  0.35116418  0.08321022     0.16360
H3599       H  0.38765195  0.37338210  0.12068036     0.16070
N3600       N  0.36236560  0.35773613  0.14009420     0.75160
O3601       O  0.35515081  0.35562283  0.05402398    -0.38290
O3602       O  0.36863764  0.38104844  0.05702274    -0.38230
O3603       O  0.35822861  0.34281575  0.14675962    -0.38940
O3604       O  0.36946978  0.36924766  0.15009051    -0.39000
C3605       C  0.28157440  0.33581000  0.06284136    -0.11280
C3606       C  0.27147972  0.33555735  0.07863125     0.05720
C3607       C  0.25320396  0.34023171  0.07817548    -0.06570
C3608       C  0.24570279  0.34544929  0.06170224    -0.07310
C3609       C  0.25595298  0.34632548  0.04603068    -0.01870
C3610       C  0.27411059  0.34130067  0.04643085     0.04950
N3611       N  0.28539282  0.34274001  0.03083017     0.67460
H3612       H  0.29557950  0.33227045  0.06347684     0.16360
H3613       H  0.23187627  0.34964487  0.06118564     0.16070
N3614       N  0.24209205  0.33993408  0.09400039     0.75160
O3615       O  0.30197268  0.34511234  0.03266536    -0.38290
O3616       O  0.27919270  0.34038910  0.01525529    -0.38230
O3617       O  0.24860175  0.34217450  0.10946517    -0.38940
O3618       O  0.22536917  0.33860593  0.09243535    -0.39000
C3619       C  0.40802414  0.00298189  0.09413716    -0.11280
C3620       C  0.39676329  0.01791925  0.09480689     0.05720
C3621       C  0.37868000  0.01586246  0.08973618    -0.06570
C3622       C  0.37234984  0.99907622  0.08455623    -0.07310
C3623       C  0.38352341  0.98404869  0.08433552    -0.01870
C3624       C  0.40163129  0.98615382  0.08931189     0.04950
N3625       N  0.41364272  0.97135984  0.09027866     0.67460
H3626       H  0.42185378  0.00414207  0.09823685     0.16360
H3627       H  0.35844120  0.99781379  0.08078366     0.16070
N3628       N  0.36634959  0.03039442  0.09034814     0.75160
O3629       O  0.42843911  0.97220879  0.08228236    -0.38290
O3630       O  0.41132628  0.95949413  0.10212644    -0.38230
O3631       O  0.36849716  0.04364513  0.08007959    -0.38940
O3632       O  0.35173697  0.02855660  0.09853114    -0.39000
C3633       C  0.38684839  0.01301769  0.19000821    -0.11280
C3634       C  0.38721714  0.02302178  0.20577536     0.05720
C3635       C  0.39574581  0.03980001  0.20597565    -0.06570
C3636       C  0.40342803  0.04619302  0.19007461    -0.07310
C3637       C  0.40242399  0.03649277  0.17413970    -0.01870
C3638       C  0.39425667  0.01950168  0.17400224     0.04950
N3639       N  0.39327815  0.00862841  0.15808400     0.67460
H3640       H  0.38013566  0.00024639  0.19008600     0.16360
H3641       H  0.40957732  0.05923667  0.18991503     0.16070
N3642       N  0.39547378  0.05113798  0.22149100     0.75160
O3643       O  0.39084816  0.99206278  0.15953880    -0.38290
O3644       O  0.39401975  0.01536487  0.14253886    -0.38230
O3645       O  0.39792434  0.04483733  0.23704933    -0.38940
O3646       O  0.39465450  0.06781050  0.21950103    -0.39000
C3647       C  0.32710352  0.24322367  0.14359102    -0.11280
C3648       C  0.33290060  0.24219458  0.16151616     0.05720
C3649       C  0.33018214  0.25700400  0.17276654    -0.06570
C3650       C  0.32247520  0.27251649  0.16581315    -0.07310
C3651       C  0.31734473  0.27387519  0.14770823    -0.01870
C3652       C  0.31925633  0.25876529  0.13659266     0.04950
N3653       N  0.31360366  0.25891332  0.11818282     0.67460
H3654       H  0.32889445  0.23194173  0.13481490     0.16360
H3655       H  0.32091982  0.28377273  0.17467139     0.16070
N3656       N  0.33531402  0.25669845  0.19128022     0.75160
O3657       O  0.32411106  0.25360582  0.10614638    -0.38290
O3658       O  0.29727333  0.26076577  0.11445057    -0.38230
O3659       O  0.35110690  0.26067433  0.19558303    -0.38940
O3660       O  0.32341912  0.25634436  0.20322567    -0.39000
C3661       C  0.34584523  0.18523640  0.24612857    -0.11280
C3662       C  0.34000180  0.17883689  0.22941844     0.05720
C3663       C  0.32569784  0.16658297  0.22893783    -0.06570
C3664       C  0.31749400  0.16133074  0.24494961    -0.07310
C3665       C  0.32352156  0.16733618  0.26172770    -0.01870
C3666       C  0.33771764  0.17976304  0.26228906     0.04950
N3667       N  0.34372470  0.18731978  0.27891263     0.67460
H3668       H  0.35655769  0.19489701  0.24659398     0.16360
H3669       H  0.30695847  0.15148843  0.24425159     0.16070
N3670       N  0.32004343  0.15836933  0.21252291     0.75160
O3671       O  0.36000742  0.19103288  0.28110827    -0.38290
O3672       O  0.33253079  0.19282898  0.29020725    -0.38230
O3673       O  0.33125852  0.15034210  0.20291505    -0.38940
O3674       O  0.30362375  0.15633892  0.20933306    -0.39000
C3675       C  0.38985378  0.13511204  0.16674815    -0.11280
C3676       C  0.37875267  0.14583142  0.15601233     0.05720
C3677       C  0.37404916  0.13984863  0.13862002    -0.06570
C3678       C  0.38074874  0.12347057  0.13248209    -0.07310
C3679       C  0.39227955  0.11306455  0.14314308    -0.01870
C3680       C  0.39642389  0.11885374  0.16072397     0.04950
N3681       N  0.40674402  0.10817288  0.17297309     0.67460
H3682       H  0.39322070  0.13920541  0.18026605     0.16360
H3683       H  0.37750104  0.11921389  0.11899397     0.16070
N3684       N  0.36331200  0.15045288  0.12668586     0.75160
O3685       O  0.41893983  0.11523852  0.18222496    -0.38290
O3686       O  0.40165434  0.09261534  0.17685916    -0.38230
O3687       O  0.36773371  0.16630711  0.12322510    -0.38940
O3688       O  0.35145011  0.14313874  0.11720061    -0.39000
C3689       C  0.41354624  0.22980013  0.14704911    -0.11280
C3690       C  0.41361749  0.22285046  0.16459966     0.05720
C3691       C  0.42905842  0.22492005  0.17537662    -0.06570
C3692       C  0.44402091  0.23368116  0.16814686    -0.07310
C3693       C  0.44404446  0.23998672  0.15032925    -0.01870
C3694       C  0.42837856  0.23844263  0.13986431     0.04950
N3695       N  0.42711417  0.24582588  0.12204733     0.67460
H3696       H  0.40164915  0.22879751  0.13881106     0.16360
H3697       H  0.45606732  0.23462910  0.17616086     0.16070
N3698       N  0.43027953  0.21736393  0.19310748     0.75160
O3699       O  0.41938032  0.23723629  0.10977136    -0.38290
O3700       O  0.43145551  0.26181720  0.11917355    -0.38230
O3701       O  0.42621779  0.20126252  0.19573179    -0.38940
O3702       O  0.43832630  0.22570739  0.20535310    -0.39000
C3703       C  0.49593621  0.41582726  0.11138780    -0.11280
C3704       C  0.50710066  0.42536329  0.09971903     0.05720
C3705       C  0.50088181  0.42983665  0.08231432    -0.06570
C3706       C  0.48390366  0.42407603  0.07685685    -0.07310
C3707       C  0.47294828  0.41408869  0.08839376    -0.01870
C3708       C  0.47899229  0.41013891  0.10597017     0.04950
N3709       N  0.46871673  0.39935206  0.11807149     0.67460
H3710       H  0.50055677  0.41248968  0.12480769     0.16360
H3711       H  0.47938094  0.42708013  0.06333045     0.16070
N3712       N  0.51116982  0.44071585  0.07028519     0.75160
O3713       O  0.47587804  0.38610748  0.12570952    -0.38290
O3714       O  0.45390181  0.40491284  0.12372258    -0.38230
O3715       O  0.52623609  0.43550951  0.06497533    -0.38940
O3716       O  0.50387968  0.45377107  0.06244093    -0.39000
C3717       C  0.58544926  0.46551158  0.17738191    -0.11280
C3718       C  0.56752546  0.46636441  0.17199204     0.05720
C3719       C  0.55490725  0.47452568  0.18336325    -0.06570
C3720       C  0.56064753  0.48167517  0.19975541    -0.07310
C3721       C  0.57859778  0.48054677  0.20505387    -0.01870
C3722       C  0.59118190  0.47273355  0.19349192     0.04950
N3723       N  0.60996722  0.47279599  0.19739296     0.67460
H3724       H  0.59536047  0.45950270  0.16877891     0.16360
H3725       H  0.55096985  0.48775562  0.20856993     0.16070
N3726       N  0.53643029  0.47587160  0.17855807     0.75160
O3727       O  0.61920593  0.45909408  0.19447560    -0.38290
O3728       O  0.61777438  0.48724667  0.20090098    -0.38230
O3729       O  0.52707146  0.46196164  0.17752734    -0.38940
O3730       O  0.52873668  0.49077571  0.17925227    -0.39000
C3731       C  0.64256515  0.32427677  0.25017251    -0.11280
C3732       C  0.64014349  0.33562710  0.23529850     0.05720
C3733       C  0.64415070  0.35389940  0.23681973    -0.06570
C3734       C  0.65073323  0.36030910  0.25309928    -0.07310
C3735       C  0.65299914  0.34911171  0.26807554    -0.01870
C3736       C  0.64927265  0.33073503  0.26657448     0.04950
N3737       N  0.65306880  0.31843034  0.28101372     0.67460
H3738       H  0.63983954  0.31020702  0.24874715     0.16360
H3739       H  0.65329047  0.37443803  0.25434961     0.16070
N3740       N  0.64070713  0.36629394  0.22238457     0.75160
O3741       O  0.64493821  0.30374595  0.28192848    -0.38290
O3742       O  0.66616986  0.32101860  0.29136814    -0.38230
O3743       O  0.62645188  0.36527516  0.21337296    -0.38940
O3744       O  0.65059544  0.37974298  0.22030556    -0.39000
C3745       C  0.61174647  0.38098134  0.15635608    -0.11280
C3746       C  0.60205858  0.36508903  0.15781201     0.05720
C3747       C  0.58505914  0.36391882  0.14966126    -0.06570
C3748       C  0.57814703  0.37859009  0.14034416    -0.07310
C3749       C  0.58749398  0.39466191  0.13925366    -0.01870
C3750       C  0.60456645  0.39606201  0.14752817     0.04950
N3751       N  0.61430579  0.41263167  0.14816805     0.67460
H3752       H  0.62476652  0.38176896  0.16265654     0.16360
H3753       H  0.56495768  0.37762912  0.13440548     0.16070
N3754       N  0.57470776  0.34787800  0.15033373     0.75160
O3755       O  0.62614227  0.41498437  0.16002397    -0.38290
O3756       O  0.61178453  0.42472042  0.13660429    -0.38230
O3757       O  0.56907521  0.34208096  0.16521636    -0.38940
O3758       O  0.56789497  0.34195811  0.13605738    -0.39000
C3759       C  0.56636192  0.29738247  0.15005047    -0.11280
C3760       C  0.57122266  0.29257907  0.16764422     0.05720
C3761       C  0.56061707  0.28007509  0.17704642    -0.06570
C3762       C  0.54554616  0.27274602  0.16853867    -0.07310
C3763       C  0.54084575  0.27760273  0.15084940    -0.01870
C3764       C  0.55162361  0.29001059  0.14154423     0.04950
N3765       N  0.54803874  0.29529482  0.12336248     0.67460
H3766       H  0.57434834  0.30678004  0.14245822     0.16360
H3767       H  0.53743888  0.26323476  0.17585568     0.16070
N3768       N  0.56506366  0.27430909  0.19488972     0.75160
O3769       O  0.54566113  0.31153437  0.11969159    -0.38290
O3770       O  0.55145106  0.28466569  0.11079531    -0.38230
O3771       O  0.56478226  0.28528785  0.20761752    -0.38940
O3772       O  0.56579048  0.25789168  0.19847296    -0.39000
C3773       C  0.23506906  0.33541153  0.82605213    -0.11280
C3774       C  0.23928253  0.35320472  0.82975948     0.05720
C3775       C  0.22676395  0.36382798  0.83887538    -0.06570
C3776       C  0.21074637  0.35628815  0.84471071    -0.07310
C3777       C  0.20681912  0.33835027  0.84163961    -0.01870
C3778       C  0.21883387  0.32780926  0.83164197     0.04950
N3779       N  0.21473274  0.30969025  0.82680710     0.67460
H3780       H  0.24451090  0.32743998  0.81863670     0.16360
H3781       H  0.20168684  0.36432182  0.85255453     0.16070
N3782       N  0.23064835  0.38184086  0.84362391     0.75160
O3783       O  0.22685926  0.29955786  0.82111716    -0.38290
O3784       O  0.19877627  0.30436784  0.82606825    -0.38230
O3785       O  0.22998575  0.39388817  0.83175265    -0.38940
O3786       O  0.23109506  0.38615243  0.85996865    -0.39000
C3787       C  0.30926877  0.45489412  0.79255980    -0.11280
C3788       C  0.31244338  0.45510589  0.77405838     0.05720
C3789       C  0.30667677  0.44085497  0.76319003    -0.06570
C3790       C  0.29859444  0.42617299  0.77154914    -0.07310
C3791       C  0.29656435  0.42548068  0.79022180    -0.01870
C3792       C  0.30119664  0.44022591  0.80086049     0.04950
N3793       N  0.29816274  0.44029352  0.81998923     0.67460
H3794       H  0.31337498  0.46616447  0.80056852     0.16360
H3795       H  0.29525637  0.41456999  0.76366501     0.16070
N3796       N  0.30982798  0.44047619  0.74406958     0.75160
O3797       O  0.30660476  0.45092986  0.82993504    -0.38290
O3798       O  0.28588834  0.43097046  0.82682524    -0.38230
O3799       O  0.32299949  0.44845526  0.73721347    -0.38940
O3800       O  0.30033055  0.43075966  0.73411714    -0.39000
C3801       C  0.40455453  0.40889263  0.98565080    -0.11280
C3802       C  0.38775712  0.41701159  0.98715208     0.05720
C3803       C  0.38033392  0.41925519  0.00447880    -0.06570
C3804       C  0.39005023  0.41388414  0.01968973    -0.07310
C3805       C  0.40675891  0.40565101  0.01824361    -0.01870
C3806       C  0.41424973  0.40333945  0.00096738     0.04950
N3807       N  0.43188100  0.39619127  0.99872696     0.67460
H3808       H  0.41042771  0.40737856  0.97247810     0.16360
H3809       H  0.38400029  0.41529746  0.03280300     0.16070
N3810       N  0.36253893  0.42590749  0.00691962     0.75160
O3811       O  0.43564158  0.38741016  0.98486198    -0.38290
O3812       O  0.44433376  0.40076165  0.00917397    -0.38230
O3813       O  0.34971357  0.41913360  0.99832172    -0.38940
O3814       O  0.35919802  0.43621902  0.01977974    -0.39000
C3815       C  0.34397208  0.39547070  0.88379494    -0.11280
C3816       C  0.33574048  0.41028875  0.89170079     0.05720
C3817       C  0.31883840  0.41573512  0.88502569    -0.06570
C3818       C  0.31054304  0.40608839  0.87134580    -0.07310
C3819       C  0.31868690  0.39130589  0.86339329    -0.01870
C3820       C  0.33568266  0.38591015  0.86978918     0.04950
N3821       N  0.34446613  0.37051395  0.86276591     0.67460
H3822       H  0.35673920  0.39093060  0.88889677     0.16360
H3823       H  0.29777042  0.41078189  0.86637638     0.16070
N3824       N  0.30995903  0.43129794  0.89154072     0.75160
O3825       O  0.36117421  0.37056117  0.86072527    -0.38290
O3826       O  0.33606209  0.35604864  0.86127533    -0.38230
O3827       O  0.31720108  0.44634970  0.88963079    -0.38940
O3828       O  0.29368675  0.43048657  0.89578051    -0.39000
C3829       C  0.29929051  0.42472603  0.97929543    -0.11280
C3830       C  0.30667751  0.41746463  0.96373853     0.05720
C3831       C  0.29786399  0.40341713  0.95497701    -0.06570
C3832       C  0.28237798  0.39631599  0.96234222    -0.07310
C3833       C  0.27537003  0.40285080  0.97842600    -0.01870
C3834       C  0.28364301  0.41761507  0.98673778     0.04950
N3835       N  0.27685434  0.42511503  0.00297288     0.67460
H3836       H  0.30593548  0.43567877  0.98592732     0.16360
H3837       H  0.27598940  0.38531418  0.95553634     0.16070
N3838       N  0.30429105  0.39637276  0.93840529     0.75160
O3839       O  0.28714117  0.42719147  0.01624598    -0.38290
O3840       O  0.26196298  0.43293260  0.00279512    -0.38230
O3841       O  0.31609085  0.38441392  0.93866657    -0.38940
O3842       O  0.29555569  0.39913530  0.92414396    -0.39000
C3843       C  0.69867901  0.32824752  0.56420110    -0.11280
C3844       C  0.69790158  0.33888088  0.57958312     0.05720
C3845       C  0.70582955  0.35595987  0.57926542    -0.06570
C3846       C  0.71329093  0.36235220  0.56336858    -0.07310
C3847       C  0.71356340  0.35204626  0.54777619    -0.01870
C3848       C  0.70625617  0.33468804  0.54820050     0.04950
N3849       N  0.70540196  0.32385483  0.53242832     0.67460
H3850       H  0.69250374  0.31521767  0.56431819     0.16360
H3851       H  0.71930308  0.37546380  0.56335071     0.16070
N3852       N  0.70684327  0.36686369  0.59500119     0.75160
O3853       O  0.70832285  0.30735814  0.53364514    -0.38290
O3854       O  0.69874246  0.33004975  0.51810119    -0.38230
O3855       O  0.71340971  0.36064134  0.60936403    -0.38940
O3856       O  0.70373750  0.38333308  0.59383456    -0.39000
C3857       C  0.55977217  0.38848213  0.50918004    -0.11280
C3858       C  0.55895749  0.39959505  0.52427768     0.05720
C3859       C  0.56647087  0.41684346  0.52295353    -0.06570
C3860       C  0.57387817  0.42264787  0.50667851    -0.07310
C3861       C  0.57490017  0.41151729  0.49162768    -0.01870
C3862       C  0.56768517  0.39414819  0.49300106     0.04950
N3863       N  0.56853773  0.38191260  0.47837025     0.67460
H3864       H  0.55425601  0.37517969  0.50991507     0.16360
H3865       H  0.57969706  0.43583181  0.50615883     0.16070
N3866       N  0.56772602  0.42835886  0.53816759     0.75160
O3867       O  0.57448062  0.36640515  0.48101151    -0.38290
O3868       O  0.56049877  0.38542084  0.46385510    -0.38230
O3869       O  0.57723185  0.42379113  0.55144627    -0.38940
O3870       O  0.56286101  0.44437053  0.53668776    -0.39000
C3871       C  0.60370534  0.37641578  0.59931515    -0.11280
C3872       C  0.58848154  0.36553403  0.60021745     0.05720
C3873       C  0.58996856  0.34858306  0.60829919    -0.06570
C3874       C  0.60624922  0.34282853  0.61518332    -0.07310
C3875       C  0.62157473  0.35315621  0.61367981    -0.01870
C3876       C  0.62051615  0.37031452  0.60559135     0.04950
N3877       N  0.63613997  0.38117798  0.60264096     0.67460
H3878       H  0.60260496  0.38936745  0.59294586     0.16360
H3879       H  0.60712189  0.32959213  0.62103790     0.16070
N3880       N  0.57516901  0.33674273  0.60960203     0.75160
O3881       O  0.63564769  0.39391898  0.59150397    -0.38290
O3882       O  0.65039352  0.37845382  0.61128200    -0.38230
O3883       O  0.56906120  0.32986269  0.59545337    -0.38940
O3884       O  0.57225796  0.32917656  0.62449627    -0.39000
C3885       C  0.49431340  0.32534503  0.58134507    -0.11280
C3886       C  0.51082251  0.32964573  0.58925038     0.05720
C3887       C  0.51750931  0.31859774  0.60315096    -0.06570
C3888       C  0.50794264  0.30372538  0.60855534    -0.07310
C3889       C  0.49144047  0.29958432  0.60109935    -0.01870
C3890       C  0.48422238  0.31056345  0.58730112     0.04950
N3891       N  0.46652603  0.30792675  0.58012301     0.67460
H3892       H  0.48896886  0.33393655  0.57089941     0.16360
H3893       H  0.51340327  0.29540394  0.61920559     0.16070
N3894       N  0.53404621  0.32187991  0.61207949     0.75160
O3895       O  0.45803656  0.32088515  0.57342425    -0.38290
O3896       O  0.45941721  0.29273094  0.57986081    -0.38230
O3897       O  0.53502206  0.33468689  0.62289370    -0.38940
O3898       O  0.54473323  0.30902795  0.61402467    -0.39000
C3899       C  0.37231822  0.48479540  0.58683834    -0.11280
C3900       C  0.38903522  0.48423419  0.59542833     0.05720
C3901       C  0.39874231  0.50028224  0.59731978    -0.06570
C3902       C  0.39125510  0.51633975  0.59139558    -0.07310
C3903       C  0.37434427  0.51706258  0.58328905    -0.01870
C3904       C  0.36474651  0.50097262  0.58096894     0.04950
N3905       N  0.34699582  0.50078170  0.57369355     0.67460
H3906       H  0.36456532  0.47269966  0.58562155     0.16360
H3907       H  0.39898231  0.52841435  0.59294032     0.16070
N3908       N  0.41629382  0.50061709  0.60507475     0.75160
O3909       O  0.34252967  0.48883518  0.56273773    -0.38290
O3910       O  0.33499593  0.51016998  0.58075261    -0.38230
O3911       O  0.42833867  0.49062726  0.59899300    -0.38940
O3912       O  0.42046999  0.51264651  0.61605541    -0.39000
C3913       C  0.47087311  0.41743758  0.61906272    -0.11280
C3914       C  0.45736352  0.42188947  0.60669472     0.05720
C3915       C  0.46079423  0.41986263  0.58812706    -0.06570
C3916       C  0.47721013  0.41280896  0.58254224    -0.07310
C3917       C  0.49056551  0.40787984  0.59490191    -0.01870
C3918       C  0.48723042  0.41013918  0.61347317     0.04950
N3919       N  0.49954816  0.40386144  0.62689997     0.67460
H3920       H  0.46827255  0.41860359  0.63331065     0.16360
H3921       H  0.47963577  0.41133630  0.56829337     0.16070
N3922       N  0.44802740  0.42527744  0.57472221     0.75160
O3923       O  0.50198812  0.41274325  0.64101496    -0.38290
O3924       O  0.50528202  0.38809461  0.62630860    -0.38230
O3925       O  0.44058864  0.44029454  0.57571500    -0.38940
O3926       O  0.44610082  0.41626874  0.56060788    -0.39000
C3927       C  0.39423664  0.47138905  0.68598053    -0.11280
C3928       C  0.38345780  0.46155846  0.67421575     0.05720
C3929       C  0.36493378  0.46004253  0.67775049    -0.06570
C3930       C  0.35789698  0.46807628  0.69301876    -0.07310
C3931       C  0.36862543  0.47781937  0.70485050    -0.01870
C3932       C  0.38696007  0.48001412  0.70095331     0.04950
N3933       N  0.39806458  0.49179417  0.71119376     0.67460
H3934       H  0.40825425  0.47316323  0.68295687     0.16360
H3935       H  0.34383397  0.46631794  0.69585046     0.16070
N3936       N  0.35300137  0.45026554  0.66629736     0.75160
O3937       O  0.41427783  0.48803728  0.71381105    -0.38290
O3938       O  0.39267926  0.50729212  0.71467765    -0.38230
O3939       O  0.35688894  0.43473921  0.66136046    -0.38940
O3940       O  0.33742104  0.45600520  0.66341449    -0.39000
C3941       C  0.32450170  0.32164153  0.75059616    -0.11280
C3942       C  0.31848688  0.32875102  0.73412548     0.05720
C3943       C  0.30666563  0.34339797  0.73438734    -0.06570
C3944       C  0.30197189  0.35102528  0.75078077    -0.07310
C3945       C  0.30835962  0.34430496  0.76727535    -0.01870
C3946       C  0.31957017  0.32917837  0.76709068     0.04950
N3947       N  0.32633427  0.32140827  0.78334705     0.67460
H3948       H  0.33348571  0.31036003  0.75068796     0.16360
H3949       H  0.29311813  0.36240761  0.75049210     0.16070
N3950       N  0.29955836  0.35106504  0.71820216     0.75160
O3951       O  0.32418816  0.30499393  0.78627507    -0.38290
O3952       O  0.33733465  0.32994852  0.79281777    -0.38230
O3953       O  0.28827162  0.34246927  0.70912429    -0.38940
O3954       O  0.30152975  0.36748326  0.71515822    -0.39000
C3955       C  0.36174002  0.37379929  0.66859508    -0.11280
C3956       C  0.35725273  0.35973878  0.65724289     0.05720
C3957       C  0.36185680  0.36085320  0.63883321    -0.06570
C3958       C  0.37089746  0.37604019  0.63240959    -0.07310
C3959       C  0.37596604  0.38981645  0.64399379    -0.01870
C3960       C  0.37123291  0.38860751  0.66240178     0.04950
N3961       N  0.37578780  0.40212525  0.67515283     0.67460
H3962       H  0.35849948  0.37289925  0.68275754     0.16360
H3963       H  0.37453588  0.37681610  0.61835232     0.16070
N3964       N  0.35884938  0.34629546  0.62682336     0.75160
O3965       O  0.36405283  0.40738100  0.68601792    -0.38290
O3966       O  0.39195852  0.40492518  0.67891932    -0.38230
O3967       O  0.34347538  0.33967327  0.62517943    -0.38940
O3968       O  0.37087699  0.34183041  0.61592085    -0.39000
C3969       C  0.39166054  0.28179247  0.65000228    -0.11280
C3970       C  0.39106921  0.28618566  0.66829479     0.05720
C3971       C  0.40632858  0.28302064  0.67907241    -0.06570
C3972       C  0.42185561  0.27620952  0.67110132    -0.07310
C3973       C  0.42241202  0.27218500  0.65268194    -0.01870
C3974       C  0.40699573  0.27507432  0.64210462     0.04950
N3975       N  0.40670217  0.27190990  0.62315559     0.67460
H3976       H  0.38017298  0.28402655  0.64140884     0.16360
H3977       H  0.43350344  0.27388758  0.67944029     0.16070
N3978       N  0.40643131  0.28660385  0.69795011     0.75160
O3979       O  0.39528591  0.26140211  0.61666507    -0.38290
O3980       O  0.41517277  0.28217659  0.61274844    -0.38230
O3981       O  0.39580893  0.27837128  0.70816892    -0.38940
O3982       O  0.41930820  0.29503164  0.70477867    -0.39000
C3983       C  0.49862453  0.08947410  0.10867967    -0.11280
C3984       C  0.50012971  0.09262075  0.09014688     0.05720
C3985       C  0.48562752  0.08833069  0.07877882    -0.06570
C3986       C  0.46962345  0.08230637  0.08630937    -0.07310
C3987       C  0.46775749  0.07996426  0.10490698    -0.01870
C3988       C  0.48256411  0.08341045  0.11625293     0.04950
N3989       N  0.48125436  0.08213661  0.13546000     0.67460
H3990       H  0.50958039  0.09297585  0.11749997     0.16360
H3991       H  0.45857345  0.07915134  0.07747156     0.16070
N3992       N  0.48703575  0.08964602  0.05957575     0.75160
O3993       O  0.49414740  0.07596466  0.14449414    -0.38290
O3994       O  0.46880803  0.09001937  0.14353951    -0.38230
O3995       O  0.50069119  0.08372800  0.05176242    -0.38940
O3996       O  0.47375267  0.09442278  0.05025996    -0.39000
C3997       C  0.52737894  0.20795472  0.09255964    -0.11280
C3998       C  0.50968028  0.20954483  0.09829285     0.05720
C3999       C  0.49809133  0.19472196  0.09730601    -0.06570
C4000       C  0.50468791  0.17855245  0.09077854    -0.07310
C4001       C  0.52246123  0.17688418  0.08534510    -0.01870
C4002       C  0.53410507  0.19160372  0.08665881     0.04950
N4003       N  0.55296574  0.18976597  0.08378259     0.67460
H4004       H  0.53634494  0.21916743  0.09400927     0.16360
H4005       H  0.49590443  0.16713882  0.08990279     0.16070
N4006       N  0.47967598  0.19587276  0.10265055     0.75160
O4007       O  0.56199287  0.20288382  0.07828032    -0.38290
O4008       O  0.56106517  0.17627813  0.08984744    -0.38230
O4009       O  0.47093009  0.21001925  0.10012208    -0.38940
O4010       O  0.47157849  0.18220254  0.10825774    -0.39000
C4011       C  0.72773742  0.17893615  0.16256685    -0.11280
C4012       C  0.71381272  0.16750544  0.15764479     0.05720
C4013       C  0.71486030  0.14923428  0.16213888    -0.06570
C4014       C  0.73012618  0.14281457  0.17094458    -0.07310
C4015       C  0.74452046  0.15409696  0.17484280    -0.01870
C4016       C  0.74297985  0.17253331  0.17131995     0.04950
N4017       N  0.75657102  0.18492185  0.17669518     0.67460
H4018       H  0.72670707  0.19303569  0.15961449     0.16360
H4019       H  0.73129817  0.12865882  0.17351113     0.16070
N4020       N  0.70142127  0.13678385  0.15659767     0.75160
O4021       O  0.75989964  0.19841291  0.16707753    -0.38290
O4022       O  0.76348927  0.18376433  0.19214212    -0.38230
O4023       O  0.69637978  0.13641638  0.14041025    -0.38940
O4024       O  0.69696267  0.12421266  0.16698209    -0.39000
C4025       C  0.65152887  0.25333431  0.13551551    -0.11280
C4026       C  0.66166610  0.24141121  0.14585432     0.05720
C4027       C  0.66699252  0.24612731  0.16343429    -0.06570
C4028       C  0.66086423  0.26220699  0.17064554    -0.07310
C4029       C  0.65000888  0.27376125  0.16057468    -0.01870
C4030       C  0.64528588  0.26928423  0.14276126     0.04950
N4031       N  0.63282029  0.27976188  0.13247914     0.67460
H4032       H  0.64726971  0.24956448  0.12214862     0.16360
H4033       H  0.66458882  0.26579200  0.18421780     0.16070
N4034       N  0.67884299  0.23505219  0.17389958     0.75160
O4035       O  0.63470769  0.28129959  0.11569907    -0.38290
O4036       O  0.61830108  0.28459311  0.13944564    -0.38230
O4037       O  0.69115082  0.22645253  0.16635868    -0.38940
O4038       O  0.67852655  0.23560803  0.19083856    -0.39000
C4039       C  0.60145655  0.13749052  0.10766506    -0.11280
C4040       C  0.59470404  0.14327343  0.09097779     0.05720
C4041       C  0.60377693  0.15704585  0.08170638    -0.06570
C4042       C  0.61825558  0.16546379  0.08975163    -0.07310
C4043       C  0.62463863  0.16025636  0.10673455    -0.01870
C4044       C  0.61664972  0.14542124  0.11538076     0.04950
N4045       N  0.62404310  0.13778123  0.13146817     0.67460
H4046       H  0.59507417  0.12652413  0.11463825     0.16360
H4047       H  0.62456309  0.17627094  0.08244614     0.16070
N4048       N  0.59872354  0.16266275  0.06399217     0.75160
O4049       O  0.61382647  0.13296466  0.14403728    -0.38290
O4050       O  0.63995016  0.13228200  0.13147554    -0.38230
O4051       O  0.58663208  0.17417101  0.06199235    -0.38940
O4052       O  0.60895106  0.15939348  0.05100614    -0.39000
C4053       C  0.71398551  0.17153201  0.07303146    -0.11280
C4054       C  0.69622781  0.17723328  0.07385283     0.05720
C4055       C  0.68471756  0.17473609  0.05902480    -0.06570
C4056       C  0.69126087  0.16609700  0.04383202    -0.07310
C4057       C  0.70888805  0.16007450  0.04315715    -0.01870
C4058       C  0.72060100  0.16292237  0.05779040     0.04950
N4059       N  0.73883270  0.15670747  0.05778448     0.67460
H4060       H  0.72246890  0.17304800  0.08473579     0.16360
H4061       H  0.68248751  0.16388154  0.03246292     0.16070
N4062       N  0.66621636  0.17985295  0.05953763     0.75160
O4063       O  0.75015938  0.16352565  0.06826615    -0.38290
O4064       O  0.74346361  0.14355092  0.04846191    -0.38230
O4065       O  0.66159490  0.19434031  0.06657640    -0.38940
O4066       O  0.65465540  0.17084251  0.05124035    -0.39000
C4067       C  0.72293771  0.14279325  0.81794604    -0.11280
C4068       C  0.70711951  0.14910640  0.82575500     0.05720
C4069       C  0.70819590  0.16255102  0.83887083    -0.06570
C4070       C  0.72482631  0.16943371  0.84364577    -0.07310
C4071       C  0.74071122  0.16288899  0.83625146    -0.01870
C4072       C  0.73973958  0.14963234  0.82289335     0.04950
N4073       N  0.75541966  0.14344628  0.81380918     0.67460
H4074       H  0.72218040  0.13279427  0.80757407     0.16360
H4075       H  0.72532906  0.17929666  0.85417249     0.16070
N4076       N  0.69274610  0.16858187  0.84840038     0.75160
O4077       O  0.75627459  0.12758332  0.80844967    -0.38290
O4078       O  0.76719335  0.15437995  0.80875043    -0.38230
O4079       O  0.68294627  0.15747782  0.85647703    -0.38940
O4080       O  0.69074208  0.18494400  0.85147561    -0.39000
C4081       C  0.61943734  0.08010232  0.78007455    -0.11280
C4082       C  0.63775866  0.08060511  0.78403888     0.05720
C4083       C  0.64843046  0.06567045  0.77995394    -0.06570
C4084       C  0.64041752  0.05066237  0.77224818    -0.07310
C4085       C  0.62196247  0.05004398  0.76895224    -0.01870
C4086       C  0.61145348  0.06518697  0.77251101     0.04950
N4087       N  0.59275811  0.06589044  0.76826835     0.67460
H4088       H  0.61111556  0.09157560  0.78263888     0.16360
H4089       H  0.64855604  0.03905873  0.76968092     0.16070
N4090       N  0.66708242  0.06504364  0.78426531     0.75160
O4091       O  0.58198327  0.07280081  0.77918022    -0.38290
O4092       O  0.58745371  0.06236239  0.75259087    -0.38230
O4093       O  0.67213373  0.06718078  0.80029197    -0.38940
O4094       O  0.67797662  0.05890916  0.77300549    -0.39000
C4095       C  0.55434457  0.09214478  0.98871459    -0.11280
C4096       C  0.57246370  0.08759688  0.98748878     0.05720
C4097       C  0.58351652  0.08938551  0.00286708    -0.06570
C4098       C  0.57614627  0.09555558  0.01890896    -0.07310
C4099       C  0.55815950  0.10041900  0.02009550    -0.01870
C4100       C  0.54691824  0.09822823  0.00493635     0.04950
N4101       N  0.52796826  0.10114418  0.00597861     0.67460
H4102       H  0.54581459  0.09036277  0.97709586     0.16360
H4103       H  0.58482913  0.09743850  0.03040906     0.16070
N4104       N  0.60240769  0.08606087  0.00228494     0.75160
O4105       O  0.51911549  0.10466368  0.99194567    -0.38290
O4106       O  0.51965309  0.09762706  0.02028154    -0.38230
O4107       O  0.61158671  0.09196301  0.98938730    -0.38940
O4108       O  0.61036539  0.07998573  0.01598310    -0.39000
C4109       C  0.61505452  0.11423844  0.88765923    -0.11280
C4110       C  0.60987226  0.09628254  0.88704984     0.05720
C4111       C  0.61339573  0.08632311  0.87143876    -0.06570
C4112       C  0.62260491  0.09438620  0.85717135    -0.07310
C4113       C  0.62831758  0.11214955  0.85793458    -0.01870
C4114       C  0.62457753  0.12226408  0.87342671     0.04950
N4115       N  0.63152126  0.13998236  0.87562252     0.67460
H4116       H  0.61293258  0.12162085  0.89990868     0.16360
H4117       H  0.62520641  0.08674074  0.84517816     0.16070
N4118       N  0.60764393  0.06811503  0.86980998     0.75160
O4119       O  0.62388952  0.15071036  0.88604805    -0.38290
O4120       O  0.64656934  0.14413220  0.86928949    -0.38230
O4121       O  0.59318229  0.06302777  0.87681497    -0.38940
O4122       O  0.61603906  0.05751473  0.85984749    -0.39000
C4123       C  0.66370391  0.08235050  0.95863374    -0.11280
C4124       C  0.64772902  0.09205584  0.95932372     0.05720
C4125       C  0.64792327  0.10936726  0.96671416    -0.06570
C4126       C  0.66375402  0.11620018  0.97364566    -0.07310
C4127       C  0.67973150  0.10663046  0.97283905    -0.01870
C4128       C  0.67983738  0.08963223  0.96480186     0.04950
N4129       N  0.69615002  0.08008405  0.96181576     0.67460
H4130       H  0.66378582  0.06932591  0.95251442     0.16360
H4131       H  0.66351468  0.12929223  0.97963397     0.16070
N4132       N  0.63228520  0.12030195  0.96745282     0.75160
O4133       O  0.69634247  0.06332466  0.96290629    -0.38290
O4134       O  0.70939181  0.08798372  0.95500053    -0.38230
O4135       O  0.62739498  0.12647622  0.98236573    -0.38940
O4136       O  0.62653999  0.12751207  0.95320835    -0.39000
C4137       C  0.58412627  0.98960756  0.90890256    -0.11280
C4138       C  0.56707518  0.98396152  0.91420763     0.05720
C4139       C  0.55669431  0.99506822  0.92531291    -0.06570
C4140       C  0.56333815  0.01190197  0.93003463    -0.07310
C4141       C  0.58014079  0.01778434  0.92422154    -0.01870
C4142       C  0.59067391  0.00650998  0.91342691     0.04950
N4143       N  0.60725765  0.01244942  0.90573135     0.67460
H4144       H  0.59184641  0.98134115  0.89995362     0.16360
H4145       H  0.55544878  0.02042517  0.93857455     0.16070
N4146       N  0.53967986  0.98935710  0.93220081     0.75160
O4147       O  0.61946951  0.00137712  0.90252126    -0.38290
O4148       O  0.60868577  0.02805520  0.89952326    -0.38230
O4149       O  0.53701224  0.97320150  0.93607967    -0.38940
O4150       O  0.52804069  0.00067764  0.93647489    -0.39000
C4151       C  0.49637696  0.90676666  0.91685598    -0.11280
C4152       C  0.49549097  0.92184491  0.90568580     0.05720
C4153       C  0.47860973  0.92962529  0.90228492    -0.06570
C4154       C  0.46316575  0.92185689  0.90962196    -0.07310
C4155       C  0.46406598  0.90648057  0.92044490    -0.01870
C4156       C  0.48108234  0.89914786  0.92438257     0.04950
N4157       N  0.48326424  0.88384645  0.93578616     0.67460
H4158       H  0.50916688  0.90070040  0.91983866     0.16360
H4159       H  0.45032989  0.92779284  0.90658788     0.16070
N4160       N  0.47681271  0.94551655  0.89173483     0.75160
O4161       O  0.49225680  0.87077997  0.93032755    -0.38290
O4162       O  0.48002944  0.88510557  0.95235123    -0.38230
O4163       O  0.47875808  0.94485937  0.87492692    -0.38940
O4164       O  0.46960742  0.95903857  0.89854295    -0.39000
C4165       C  0.57052629  0.97949856  0.83310001    -0.11280
C4166       C  0.55686906  0.96676710  0.83238763     0.05720
C4167       C  0.55008821  0.96162074  0.81545516    -0.06570
C4168       C  0.55762850  0.96884927  0.79974756    -0.07310
C4169       C  0.57184575  0.98101906  0.80053943    -0.01870
C4170       C  0.57820095  0.98644917  0.81753896     0.04950
N4171       N  0.59273359  0.99866620  0.81940902     0.67460
H4172       H  0.57588077  0.98362874  0.84595530     0.16360
H4173       H  0.55256284  0.96460938  0.78682516     0.16070
N4174       N  0.53633428  0.94847845  0.81383979     0.75160
O4175       O  0.59016460  0.01335736  0.82705677    -0.38290
O4176       O  0.60850293  0.99314868  0.81746815    -0.38230
O4177       O  0.52110719  0.95139845  0.82035065    -0.38940
O4178       O  0.53829291  0.93571959  0.80310523    -0.39000
C4179       C  0.58088855  0.85946715  0.86943724    -0.11280
C4180       C  0.58822315  0.86042791  0.85213890     0.05720
C4181       C  0.58850657  0.87692414  0.84292165    -0.06570
C4182       C  0.58127844  0.89193515  0.85123876    -0.07310
C4183       C  0.57336509  0.89093463  0.86826938    -0.01870
C4184       C  0.57317036  0.87443794  0.87763747     0.04950
N4185       N  0.56420255  0.87216398  0.89461653     0.67460
H4186       H  0.58053533  0.84671425  0.87630561     0.16360
H4187       H  0.58121977  0.90450486  0.84400377     0.16070
N4188       N  0.59610648  0.87885588  0.82528232     0.75160
O4189       O  0.55804297  0.85713452  0.89905924    -0.38290
O4190       O  0.56345733  0.88463602  0.90581396    -0.38230
O4191       O  0.59239170  0.86794029  0.81304382    -0.38940
O4192       O  0.60442598  0.89290072  0.82117114    -0.39000
C4193       C  0.54364500  0.79356500  0.85588418    -0.11280
C4194       C  0.55065418  0.78750894  0.83959530     0.05720
C4195       C  0.54070646  0.77535107  0.82916713    -0.06570
C4196       C  0.52414313  0.76932608  0.83560942    -0.07310
C4197       C  0.51758787  0.77488957  0.85229984    -0.01870
C4198       C  0.52718715  0.78765386  0.86224197     0.04950
N4199       N  0.52025328  0.79512196  0.87852156     0.67460
H4200       H  0.55089841  0.80336859  0.86362193     0.16360
H4201       H  0.51684504  0.75943177  0.82804644     0.16070
N4202       N  0.54756254  0.76814429  0.81275538     0.75160
O4203       O  0.53067076  0.79890187  0.89129330    -0.38290
O4204       O  0.50423831  0.80025208  0.87920800    -0.38230
O4205       O  0.56344469  0.76263745  0.81202457    -0.38940
O4206       O  0.53706156  0.76468532  0.79995986    -0.39000
C4207       C  0.89413446  0.39748315  0.51311913    -0.11280
C4208       C  0.89469167  0.41590096  0.51610412     0.05720
C4209       C  0.90166267  0.42714670  0.50247310    -0.06570
C4210       C  0.90750256  0.41970775  0.48621158    -0.07310
C4211       C  0.90671159  0.40131454  0.48311565    -0.01870
C4212       C  0.89959644  0.39008344  0.49669291     0.04950
N4213       N  0.89640691  0.37149030  0.49357156     0.67460
H4214       H  0.88815327  0.38889383  0.52318074     0.16360
H4215       H  0.91304859  0.42836986  0.47596150     0.16070
N4216       N  0.90327353  0.44603157  0.50500565     0.75160
O4217       O  0.89713907  0.36052320  0.50647312    -0.38290
O4218       O  0.88987211  0.36648061  0.47880326    -0.38230
O4219       O  0.90824263  0.45212321  0.51996350    -0.38940
O4220       O  0.90182577  0.45653156  0.49176899    -0.39000
C4221       C  0.87755593  0.50234044  0.57212771    -0.11280
C4222       C  0.88039763  0.48626961  0.58148530     0.05720
C4223       C  0.88765872  0.48685085  0.59896837    -0.06570
C4224       C  0.89235979  0.50314007  0.60646128    -0.07310
C4225       C  0.88991792  0.51925862  0.59709662    -0.01870
C4226       C  0.88206631  0.51883164  0.57978059     0.04950
N4227       N  0.87869154  0.53479191  0.56970662     0.67460
H4228       H  0.87165432  0.50210840  0.55882928     0.16360
H4229       H  0.89788643  0.50310108  0.61993128     0.16070
N4230       N  0.88954116  0.47111948  0.60973938     0.75160
O4231       O  0.88382186  0.53592513  0.55361096    -0.38290
O4232       O  0.86745066  0.54587114  0.57539978    -0.38230
O4233       O  0.90318634  0.46147751  0.60800468    -0.38940
O4234       O  0.87954069  0.46883736  0.62316196    -0.39000
C4235       C  0.80405744  0.42779474  0.52486998    -0.11280
C4236       C  0.81346334  0.41813975  0.53798698     0.05720
C4237       C  0.80723036  0.40120979  0.54352004    -0.06570
C4238       C  0.79225411  0.39405327  0.53521439    -0.07310
C4239       C  0.78311286  0.40334319  0.52170474    -0.01870
C4240       C  0.78905756  0.42046429  0.51637462     0.04950
N4241       N  0.78086570  0.43006605  0.50176639     0.67460
H4242       H  0.80903043  0.44063140  0.52045861     0.16360
H4243       H  0.78744613  0.38118132  0.53971780     0.16070
N4244       N  0.81561801  0.39122984  0.55778331     0.75160
O4245       O  0.77963137  0.44679320  0.50238179    -0.38290
O4246       O  0.77774779  0.42233360  0.48709606    -0.38230
O4247       O  0.82003441  0.39881490  0.57217546    -0.38940
O4248       O  0.81621120  0.37446964  0.55711127    -0.39000
C4249       C  0.83347458  0.33491890  0.73384304    -0.11280
C4250       C  0.81560198  0.34043146  0.73315898     0.05720
C4251       C  0.80481230  0.33814855  0.74858132    -0.06570
C4252       C  0.81253584  0.33187256  0.76457512    -0.07310
C4253       C  0.83067639  0.32731704  0.76560756    -0.01870
C4254       C  0.84118636  0.32855923  0.74986745     0.04950
N4255       N  0.85988595  0.32455701  0.75004572     0.67460
H4256       H  0.84189500  0.33671998  0.72216947     0.16360
H4257       H  0.80415502  0.33034394  0.77631236     0.16070
N4258       N  0.78600532  0.34190499  0.74823585     0.75160
O4259       O  0.86652808  0.31552699  0.73750986    -0.38290
O4260       O  0.87017208  0.33278919  0.76055547    -0.38230
O4261       O  0.77648728  0.33654673  0.73534404    -0.38940
O4262       O  0.77848728  0.34834585  0.76186944    -0.39000
C4263       C  0.74821675  0.33759681  0.66042401    -0.11280
C4264       C  0.74761790  0.35202657  0.67223633     0.05720
C4265       C  0.73075753  0.35834286  0.67789648    -0.06570
C4266       C  0.71513123  0.35050234  0.67120210    -0.07310
C4267       C  0.71578969  0.33657294  0.65877434    -0.01870
C4268       C  0.73266154  0.32973250  0.65378215     0.04950
N4269       N  0.73440182  0.31499604  0.64180036     0.67460
H4270       H  0.76094969  0.33229054  0.65619587     0.16360
H4271       H  0.70237368  0.35594373  0.67517779     0.16070
N4272       N  0.72909190  0.37295291  0.68999840     0.75160
O4273       O  0.74487425  0.31606866  0.62859335    -0.38290
O4274       O  0.72804829  0.30003329  0.64616018    -0.38230
O4275       O  0.73307917  0.38843272  0.68471183    -0.38940
O4276       O  0.72003649  0.37106692  0.70414573    -0.39000
C4277       C  0.81481591  0.40444393  0.62863193    -0.11280
C4278       C  0.82522055  0.39448244  0.64074002     0.05720
C4279       C  0.84381808  0.39350158  0.63780611    -0.06570
C4280       C  0.85142932  0.40206271  0.62278918    -0.07310
C4281       C  0.84098062  0.41206053  0.61067397    -0.01870
C4282       C  0.82237317  0.41347504  0.61400097     0.04950
N4283       N  0.81080613  0.42412551  0.60292994     0.67460
H4284       H  0.80058699  0.40570183  0.63079518     0.16360
H4285       H  0.86567988  0.40098440  0.62069909     0.16070
N4286       N  0.85531052  0.38461672  0.65032304     0.75160
O4287       O  0.79655714  0.41744495  0.59691011    -0.38290
O4288       O  0.81237754  0.44083427  0.60311294    -0.38230
O4289       O  0.85590194  0.36785141  0.65071249    -0.38940
O4290       O  0.86673597  0.39343358  0.65899360    -0.39000
C4291       C  0.80718038  0.43908378  0.70639689    -0.11280
C4292       C  0.80544052  0.42400668  0.71737763     0.05720
C4293       C  0.80860729  0.42515313  0.73612101    -0.06570
C4294       C  0.81435614  0.44150254  0.74307519    -0.07310
C4295       C  0.81739951  0.45618147  0.73180240    -0.01870
C4296       C  0.81315241  0.45524851  0.71336524     0.04950
N4297       N  0.81489201  0.47045980  0.70162440     0.67460
H4298       H  0.80443865  0.43804563  0.69213666     0.16360
H4299       H  0.81765389  0.44250410  0.75721253     0.16070
N4300       N  0.80638171  0.41016860  0.74822325     0.75160
O4301       O  0.81756025  0.46836631  0.68503920    -0.38290
O4302       O  0.81186467  0.48591659  0.70737106    -0.38230
O4303       O  0.80570142  0.39441810  0.74254402    -0.38940
O4304       O  0.80543101  0.41264610  0.76494843    -0.39000
C4305       C  0.22496865  0.16753020  0.64675083    -0.11280
C4306       C  0.24127239  0.16342249  0.65511515     0.05720
C4307       C  0.24136604  0.15224493  0.67048048    -0.06570
C4308       C  0.22510142  0.14529080  0.67683782    -0.07310
C4309       C  0.20882308  0.14945049  0.66836980    -0.01870
C4310       C  0.20886714  0.16043684  0.65288758     0.04950
N4311       N  0.19293695  0.16367851  0.64257075     0.67460
H4312       H  0.22480740  0.17563717  0.63465966     0.16360
H4313       H  0.22509011  0.13704958  0.68883529     0.16070
N4314       N  0.25754610  0.14845199  0.68019410     0.75160
O4315       O  0.19026482  0.17879103  0.63557105    -0.38290
O4316       O  0.18314795  0.15082470  0.63794133    -0.38230
O4317       O  0.26881420  0.16061711  0.68295581    -0.38940
O4318       O  0.25945295  0.13369582  0.68816677    -0.39000
C4319       C  0.31859884  0.23303570  0.65493347    -0.11280
C4320       C  0.30124653  0.23228700  0.64802690     0.05720
C4321       C  0.29033753  0.24767093  0.64849377    -0.06570
C4322       C  0.29741673  0.26354193  0.65552820    -0.07310
C4323       C  0.31484153  0.26416697  0.66243929    -0.01870
C4324       C  0.32563550  0.24876224  0.66179026     0.04950
N4325       N  0.34414160  0.24912378  0.66682984     0.67460
H4326       H  0.32714097  0.22143823  0.65417630     0.16360
H4327       H  0.28909546  0.27528868  0.65621879     0.16070
N4328       N  0.27197211  0.24724103  0.64282410     0.75160
O4329       O  0.35102568  0.23593298  0.67481867    -0.38290
O4330       O  0.35424103  0.26096161  0.66038497    -0.38230
O4331       O  0.26236118  0.23387936  0.64634265    -0.38940
O4332       O  0.26464579  0.26112724  0.63666615    -0.39000
C4333       C  0.27258126  0.16837590  0.55955100    -0.11280
C4334       C  0.26096805  0.16981111  0.57415843     0.05720
C4335       C  0.24360628  0.16256113  0.57316521    -0.06570
C4336       C  0.23864780  0.15316294  0.55776121    -0.07310
C4337       C  0.25053775  0.15107893  0.54348616    -0.01870
C4338       C  0.26771461  0.15878429  0.54423560     0.04950
N4339       N  0.28069808  0.15600616  0.53029704     0.67460
H4340       H  0.28605177  0.17349109  0.56073136     0.16360
H4341       H  0.22536675  0.14754566  0.55676992     0.16070
N4342       N  0.23094886  0.16474081  0.58751953     0.75160
O4343       O  0.29359207  0.16665752  0.52841398    -0.38290
O4344       O  0.28066280  0.14182093  0.52135743    -0.38230
O4345       O  0.23152624  0.17830818  0.59738985    -0.38940
O4346       O  0.21802823  0.15408901  0.58921157    -0.39000
C4347       C  0.38820608  0.11564751  0.50513546    -0.11280
C4348       C  0.40227768  0.10675881  0.51376809     0.05720
C4349       C  0.41071082  0.09227589  0.50514821    -0.06570
C4350       C  0.40435564  0.08693192  0.48821508    -0.07310
C4351       C  0.39002046  0.09560170  0.47979801    -0.01870
C4352       C  0.38180059  0.11021510  0.48831997     0.04950
N4353       N  0.36646343  0.11908600  0.48069369     0.67460
H4354       H  0.38189506  0.12675674  0.51178899     0.16360
H4355       H  0.41028966  0.07553254  0.48172448     0.16070
N4356       N  0.42579439  0.08307565  0.51293307     0.75160
O4357       O  0.35513794  0.12631034  0.49081482    -0.38290
O4358       O  0.36492313  0.12115729  0.46393020    -0.38230
O4359       O  0.42777701  0.08181138  0.52972278    -0.38940
O4360       O  0.43669376  0.07509025  0.50292959    -0.39000
C4361       C  0.36385204  0.14113697  0.60919432    -0.11280
C4362       C  0.36425424  0.13800560  0.59061241     0.05720
C4363       C  0.34940403  0.14295077  0.57993270    -0.06570
C4364       C  0.33493404  0.15153593  0.58799747    -0.07310
C4365       C  0.33471802  0.15519888  0.60645713    -0.01870
C4366       C  0.34941563  0.15000767  0.61724210     0.04950
N4367       N  0.35063011  0.15484484  0.63587143     0.67460
H4368       H  0.37547499  0.13788899  0.61725759     0.16360
H4369       H  0.32353997  0.15521062  0.57977506     0.16070
N4370       N  0.34867658  0.13919303  0.56100119     0.75160
O4371       O  0.35942860  0.14526830  0.64671331    -0.38290
O4372       O  0.34533099  0.16991632  0.64096516    -0.38230
O4373       O  0.35492388  0.12481669  0.55504233    -0.38940
O4374       O  0.33999133  0.14923087  0.55048915    -0.39000
C4375       C  0.45461416  0.18027394  0.58169238    -0.11280
C4376       C  0.43627482  0.17702599  0.58311433     0.05720
C4377       C  0.42512657  0.18942484  0.59180852    -0.06570
C4378       C  0.43286395  0.20464396  0.59921047    -0.07310
C4379       C  0.45126256  0.20762670  0.59833438    -0.01870
C4380       C  0.46242607  0.19543680  0.58931356     0.04950
N4381       N  0.48156380  0.19752200  0.58861772     0.67460
H4382       H  0.46296415  0.17057198  0.57507632     0.16360
H4383       H  0.42450530  0.21406923  0.60622267     0.16070
N4384       N  0.40608321  0.18704109  0.59316387     0.75160
O4385       O  0.49144627  0.18410969  0.58651337    -0.38290
O4386       O  0.48870089  0.21271202  0.58891267    -0.38230
O4387       O  0.39938223  0.17184645  0.59573121    -0.38940
O4388       O  0.39595955  0.20044412  0.59359204    -0.39000
C4389       C  0.64425932  0.84965281  0.76020211    -0.11280
C4390       C  0.63837303  0.84302198  0.74360443     0.05720
C4391       C  0.62537159  0.82936044  0.74349363    -0.06570
C4392       C  0.61830492  0.82317326  0.75989126    -0.07310
C4393       C  0.62409133  0.83003725  0.77643481    -0.01870
C4394       C  0.63713240  0.84362865  0.77648517     0.04950
N4395       N  0.64253559  0.85230270  0.79274525     0.67460
H4396       H  0.65387788  0.86040358  0.76056804     0.16360
H4397       H  0.60851501  0.81257340  0.75972464     0.16070
N4398       N  0.61956758  0.82125497  0.72707919     0.75160
O4399       O  0.65873567  0.85619453  0.79521432    -0.38290
O4400       O  0.63092656  0.85894117  0.80293965    -0.38230
O4401       O  0.63091317  0.81598776  0.71581912    -0.38940
O4402       O  0.60345974  0.81673217  0.72515703    -0.39000
C4403       C  0.71041113  0.85139531  0.66217980    -0.11280
C4404       C  0.70824131  0.85323793  0.68073006     0.05720
C4405       C  0.72275868  0.84946995  0.69240052    -0.06570
C4406       C  0.73919425  0.84415265  0.68498557    -0.07310
C4407       C  0.74123876  0.84218144  0.66638193    -0.01870
C4408       C  0.72675250  0.84626400  0.65482251     0.04950
N4409       N  0.72863490  0.84612644  0.63559472     0.67460
H4410       H  0.69943940  0.85473175  0.65325415     0.16360
H4411       H  0.75020764  0.84071455  0.69380065     0.16070
N4412       N  0.72083711  0.84997638  0.71163922     0.75160
O4413       O  0.71557302  0.84190831  0.62576318    -0.38290
O4414       O  0.74231527  0.85280479  0.62836079    -0.38230
O4415       O  0.70620586  0.84584593  0.71891224    -0.38940
O4416       O  0.73433457  0.85232058  0.72152656    -0.39000
C4417       C  0.64870689  0.93202403  0.73465159    -0.11280
C4418       C  0.64244202  0.92525085  0.71833264     0.05720
C4419       C  0.62938247  0.93466202  0.70854310    -0.06570
C4420       C  0.62221562  0.95018854  0.71550937    -0.07310
C4421       C  0.62763645  0.95659004  0.73229198    -0.01870
C4422       C  0.64143457  0.94766964  0.74179358     0.04950
N4423       N  0.64744431  0.95356411  0.75904763     0.67460
H4424       H  0.65877623  0.92477863  0.74218448     0.16360
H4425       H  0.61191026  0.95702248  0.70789709     0.16070
N4426       N  0.62306446  0.92846779  0.69155577     0.75160
O4427       O  0.64827371  0.94264231  0.77198112    -0.38290
O4428       O  0.65519887  0.96838789  0.76044273    -0.38230
O4429       O  0.61052445  0.91729200  0.69106114    -0.38940
O4430       O  0.62729465  0.93676187  0.67740489    -0.39000
C4431       C  0.60664903  0.90244422  0.62974933    -0.11280
C4432       C  0.61828911  0.90773138  0.61599210     0.05720
C4433       C  0.63662269  0.90365658  0.61767679    -0.06570
C4434       C  0.64291373  0.89485371  0.63303967    -0.07310
C4435       C  0.63146767  0.89001709  0.64711456    -0.01870
C4436       C  0.61296080  0.89377415  0.64539724     0.04950
N4437       N  0.60055288  0.89005134  0.65961926     0.67460
H4438       H  0.59256793  0.90545867  0.62849625     0.16360
H4439       H  0.65708050  0.89215479  0.63417431     0.16070
N4440       N  0.64907671  0.90804299  0.60378802     0.75160
O4441       O  0.58800008  0.90079109  0.66267405    -0.38290
O4442       O  0.60012841  0.87487661  0.66692973    -0.38230
O4443       O  0.65497315  0.92372230  0.60252454    -0.38940
O4444       O  0.65706909  0.89571826  0.59569588    -0.39000
C4445       C  0.66525784  0.92386671  0.54357901    -0.11280
C4446       C  0.64870183  0.91565959  0.54075062     0.05720
C4447       C  0.64788955  0.89931145  0.53152415    -0.06570
C4448       C  0.66370207  0.89099360  0.52649441    -0.07310
C4449       C  0.68032885  0.89879299  0.52987835    -0.01870
C4450       C  0.68116680  0.91554512  0.53839314     0.04950
N4451       N  0.69789038  0.92375648  0.54288334     0.67460
H4452       H  0.66590100  0.93626045  0.55088308     0.16360
H4453       H  0.66295860  0.87848219  0.51939728     0.16070
N4454       N  0.63116532  0.89117887  0.52679325     0.75160
O4455       O  0.69953245  0.94044005  0.54183225    -0.38290
O4456       O  0.70999411  0.91480144  0.55054511    -0.38230
O4457       O  0.61875550  0.90047417  0.52011179    -0.38940
O4458       O  0.62958807  0.87446153  0.52704193    -0.39000
C4459       C  0.50143510  0.92562518  0.40507935    -0.11280
C4460       C  0.50040334  0.90893840  0.41366336     0.05720
C4461       C  0.48366219  0.90033021  0.41463720    -0.06570
C4462       C  0.46855471  0.90843147  0.40726981    -0.07310
C4463       C  0.46943872  0.92509717  0.39874823    -0.01870
C4464       C  0.48617239  0.93380408  0.39758139     0.04950
N4465       N  0.48789897  0.95111065  0.38956846     0.67460
H4466       H  0.51417888  0.93236712  0.40418072     0.16360
H4467       H  0.45592819  0.90144837  0.40814135     0.16070
N4468       N  0.48177245  0.88299750  0.42246535     0.75160
O4469       O  0.49608279  0.96318503  0.39792318    -0.38290
O4470       O  0.48462170  0.95327745  0.37306689    -0.38230
O4471       O  0.47997423  0.88141800  0.43924646    -0.38940
O4472       O  0.47821167  0.86993877  0.41252848    -0.39000
C4473       C  0.56040422  0.89114636  0.50112667    -0.11280
C4474       C  0.56000755  0.90235517  0.48592850     0.05720
C4475       C  0.56546838  0.92027011  0.48778314    -0.06570
C4476       C  0.57176181  0.92622931  0.50444150    -0.07310
C4477       C  0.57268724  0.91490858  0.51951871    -0.01870
C4478       C  0.56699177  0.89705144  0.51775493     0.04950
N4479       N  0.56903855  0.88436089  0.53211364     0.67460
H4480       H  0.55658084  0.87731891  0.49982041     0.16360
H4481       H  0.57591893  0.93997624  0.50561323     0.16070
N4482       N  0.56448317  0.93270875  0.47308175     0.75160
O4483       O  0.55690670  0.87307614  0.53506283    -0.38290
O4484       O  0.58412868  0.88213156  0.53935670    -0.38230
O4485       O  0.55008857  0.93456738  0.46442974    -0.38940
O4486       O  0.57695137  0.94373258  0.47056610    -0.39000
C4487       C  0.51290017  0.82837144  0.40423275    -0.11280
C4488       C  0.52381206  0.82834948  0.41958108     0.05720
C4489       C  0.52866730  0.81187714  0.42749840    -0.06570
C4490       C  0.52273876  0.79595466  0.41967978    -0.07310
C4491       C  0.51220710  0.79606438  0.40402978    -0.01870
C4492       C  0.50726370  0.81257228  0.39630892     0.04950
N4493       N  0.49653010  0.81366096  0.38040172     0.67460
H4494       H  0.50904472  0.84084938  0.39795230     0.16360
H4495       H  0.52664969  0.78339868  0.42573989     0.16070
N4496       N  0.54027151  0.81094505  0.44280599     0.75160
O4497       O  0.48133499  0.82082230  0.38112779    -0.38290
O4498       O  0.50368680  0.81132608  0.36528303    -0.38230
O4499       O  0.53522144  0.81714844  0.45764170    -0.38940
O4500       O  0.55383297  0.80101527  0.44242598    -0.39000
C4501       C  0.71888674  0.82696494  0.32819396    -0.11280
C4502       C  0.71297275  0.83413551  0.34444175     0.05720
C4503       C  0.72180676  0.84891494  0.35176866    -0.06570
C4504       C  0.73597488  0.85667317  0.34263075    -0.07310
C4505       C  0.74252206  0.84914889  0.32693422    -0.01870
C4506       C  0.73379743  0.83428408  0.31924756     0.04950
N4507       N  0.73966161  0.82670958  0.30253547     0.67460
H4508       H  0.71200346  0.81557209  0.32267007     0.16360
H4509       H  0.74315757  0.86754632  0.34885563     0.16070
N4510       N  0.71859971  0.85407123  0.36987679     0.75160
O4511       O  0.73455594  0.81137290  0.29802181    -0.38290
O4512       O  0.74858635  0.83583401  0.29145345    -0.38230
O4513       O  0.71943372  0.84223510  0.38189407    -0.38940
O4514       O  0.71956872  0.87021570  0.37429607    -0.39000
C4515       C  0.65789282  0.76056353  0.33932718    -0.11280
C4516       C  0.66092200  0.76120485  0.35791703     0.05720
C4517       C  0.66049556  0.74517528  0.36801036    -0.06570
C4518       C  0.65624807  0.72915512  0.35936624    -0.07310
C4519       C  0.65213977  0.72874482  0.34095010    -0.01870
C4520       C  0.65385578  0.74456625  0.33066573     0.04950
N4521       N  0.65172392  0.74463774  0.31146296     0.67460
H4522       H  0.65894549  0.77264121  0.33136924     0.16360
H4523       H  0.65483571  0.71717252  0.36740896     0.16070
N4524       N  0.66303725  0.74498397  0.38713266     0.75160
O4525       O  0.64500842  0.75796911  0.30356161    -0.38290
O4526       O  0.65874812  0.73253765  0.30219355    -0.38230
O4527       O  0.65418766  0.75539843  0.39688765    -0.38940
O4528       O  0.67171881  0.73250111  0.39446856    -0.39000
C4529       C  0.62443965  0.86043640  0.39478831    -0.11280
C4530       C  0.62355214  0.84180337  0.39323748     0.05720
C4531       C  0.60775481  0.83300934  0.39845657    -0.06570
C4532       C  0.59348288  0.84280257  0.40518135    -0.07310
C4533       C  0.59450595  0.86130139  0.40731911    -0.01870
C4534       C  0.61020548  0.87037121  0.40195461     0.04950
N4535       N  0.61258961  0.88915460  0.40478115     0.67460
H4536       H  0.63658823  0.86727180  0.39097517     0.16360
H4537       H  0.58155470  0.83572713  0.40932755     0.16070
N4538       N  0.60596848  0.81410660  0.39731571     0.75160
O4539       O  0.62795777  0.89530988  0.40788543    -0.38290
O4540       O  0.59984703  0.89988276  0.40249892    -0.38230
O4541       O  0.61225737  0.80441834  0.40971630    -0.38940
O4542       O  0.59475621  0.80758947  0.38653772    -0.39000
C4543       C  0.68948258  0.81840135  0.44822940    -0.11280
C4544       C  0.69713356  0.82512190  0.43232449     0.05720
C4545       C  0.71114540  0.83763337  0.43368609    -0.06570
C4546       C  0.71715370  0.84297809  0.45040261    -0.07310
C4547       C  0.70885325  0.83728188  0.46611134    -0.01870
C4548       C  0.69486153  0.82466270  0.46523144     0.04950
N4549       N  0.68513347  0.81914198  0.48095330     0.67460
H4550       H  0.67860237  0.80895926  0.44737367     0.16360
H4551       H  0.72762640  0.85293473  0.45102585     0.16070
N4552       N  0.71848171  0.84651549  0.41844407     0.75160
O4553       O  0.66888401  0.81489276  0.47968367    -0.38290
O4554       O  0.69292703  0.81720526  0.49587751    -0.38230
O4555       O  0.71040322  0.86002068  0.41238467    -0.38940
O4556       O  0.73496294  0.84494194  0.41541615    -0.39000
C4557       C  0.62196598  0.25558937  0.65741904    -0.11280
C4558       C  0.63245970  0.24013676  0.65835136     0.05720
C4559       C  0.65050287  0.24104802  0.65285159    -0.06570
C4560       C  0.65747517  0.25738855  0.64668496    -0.07310
C4561       C  0.64693856  0.27283078  0.64604193    -0.01870
C4562       C  0.62895399  0.27182612  0.65145995     0.04950
N4563       N  0.61734400  0.28693328  0.65032109     0.67460
H4564       H  0.60808844  0.25508798  0.66144769     0.16360
H4565       H  0.67131152  0.25809063  0.64257377     0.16070
N4566       N  0.66218802  0.22600112  0.65432128     0.75160
O4567       O  0.60308438  0.28588185  0.64133387    -0.38290
O4568       O  0.61930473  0.29962580  0.66113690    -0.38230
O4569       O  0.65861846  0.21186220  0.64603847    -0.38940
O4570       O  0.67753643  0.22790565  0.66106282    -0.39000
C4571       C  0.64010844  0.16719436  0.73041281    -0.11280
C4572       C  0.62352668  0.17587449  0.73056660     0.05720
C4573       C  0.61440166  0.17737663  0.74713497    -0.06570
C4574       C  0.62202107  0.17017346  0.76287649    -0.07310
C4575       C  0.63834803  0.16101748  0.76254860    -0.01870
C4576       C  0.64764936  0.15990261  0.74605280     0.04950
N4577       N  0.66483192  0.15159134  0.74483859     0.67460
H4578       H  0.64747799  0.16614611  0.71797415     0.16360
H4579       H  0.61459535  0.17093394  0.77530509     0.16070
N4580       N  0.59704972  0.18528600  0.74821628     0.75160
O4581       O  0.66814591  0.14118753  0.73204664    -0.38290
O4582       O  0.67747915  0.15680110  0.75472079    -0.38230
O4583       O  0.58419619  0.17854455  0.73964526    -0.38940
O4584       O  0.59381096  0.19639245  0.76040381    -0.39000
C4585       C  0.54203556  0.20842115  0.65124980    -0.11280
C4586       C  0.55098761  0.21711766  0.66522708     0.05720
C4587       C  0.54297444  0.23202056  0.67342414    -0.06570
C4588       C  0.52618484  0.23783283  0.66724158    -0.07310
C4589       C  0.51760780  0.22944502  0.65280792    -0.01870
C4590       C  0.52538624  0.21422100  0.64507119     0.04950
N4591       N  0.51639681  0.20423942  0.63131475     0.67460
H4592       H  0.54794012  0.19671709  0.64529060     0.16360
H4593       H  0.52031097  0.24966717  0.67295206     0.16070
N4594       N  0.55208357  0.24211746  0.68699099     0.75160
O4595       O  0.52528955  0.19631323  0.61943757    -0.38290
O4596       O  0.49983271  0.20138443  0.63234307    -0.38230
O4597       O  0.56850645  0.24550322  0.68546182    -0.38940
O4598       O  0.54326911  0.24991955  0.69900800    -0.39000
C4599       C  0.57000794  0.01653774  0.57663128    -0.11280
C4600       C  0.56650185  0.01802405  0.59504919     0.05720
C4601       C  0.57069294  0.00367627  0.60660346    -0.06570
C4602       C  0.57799714  0.98815834  0.59960903    -0.07310
C4603       C  0.58115122  0.98633978  0.58119419    -0.01870
C4604       C  0.57703402  0.00071502  0.56930875     0.04950
N4605       N  0.57886508  0.99943579  0.55001785     0.67460
H4606       H  0.56677746  0.02766083  0.56788774     0.16360
H4607       H  0.58113374  0.97727311  0.60872272     0.16070
N4608       N  0.56820603  0.00484465  0.62561711     0.75160
O4609       O  0.57163355  0.01089358  0.53987187    -0.38290
O4610       O  0.58756214  0.98702691  0.54286400    -0.38230
O4611       O  0.55277814  0.00304995  0.63209405    -0.38940
O4612       O  0.58155476  0.00377354  0.63593664    -0.39000
C4613       C  0.47893504  0.10449319  0.58035428    -0.11280
C4614       C  0.46260516  0.09622834  0.58443949     0.05720
C4615       C  0.46267295  0.08090787  0.59561774    -0.06570
C4616       C  0.47893464  0.07471446  0.60282773    -0.07310
C4617       C  0.49518507  0.08316736  0.59884167    -0.01870
C4618       C  0.49509217  0.09840363  0.58759477     0.04950
N4619       N  0.51100048  0.10859069  0.58431966     0.67460
H4620       H  0.47909643  0.11647791  0.57218549     0.16360
H4621       H  0.47894734  0.06288770  0.61122971     0.16070
N4622       N  0.44661304  0.07114169  0.59930825     0.75160
O4623       O  0.51370722  0.11534389  0.56899445    -0.38290
O4624       O  0.52069305  0.11337236  0.59731712    -0.38230
O4625       O  0.43618288  0.06709906  0.58663501    -0.38940
O4626       O  0.44428411  0.06412861  0.61457972    -0.39000
C4627       C  0.56796061  0.11767232  0.65683105    -0.11280
C4628       C  0.57071826  0.11408518  0.63857426     0.05720
C4629       C  0.58202262  0.12548190  0.62851416    -0.06570
C4630       C  0.59009717  0.14015127  0.63704228    -0.07310
C4631       C  0.58688855  0.14389404  0.65523321    -0.01870
C4632       C  0.57601308  0.13214034  0.66530726     0.04950
N4633       N  0.57334325  0.13434595  0.68426838     0.67460
H4634       H  0.55981756  0.10876106  0.66485559     0.16360
H4635       H  0.59815956  0.14924269  0.62915462     0.16070
N4636       N  0.58466077  0.12307493  0.60958242     0.75160
O4637       O  0.55821394  0.13139814  0.69107136    -0.38290
O4638       O  0.58656096  0.13667212  0.69453632    -0.38230
O4639       O  0.57152472  0.11988530  0.59945645    -0.38940
O4640       O  0.59950777  0.12688144  0.60258408    -0.39000
C4641       C  0.57571250  0.04581560  0.67972270    -0.11280
C4642       C  0.55883340  0.04094039  0.67322262     0.05720
C4643       C  0.54824618  0.02899910  0.68342472    -0.06570
C4644       C  0.55503932  0.02212647  0.69970538    -0.07310
C4645       C  0.57224390  0.02654370  0.70571941    -0.01870
C4646       C  0.58247325  0.03898298  0.69582660     0.04950
N4647       N  0.59953149  0.04520149  0.70208206     0.67460
H4648       H  0.58370063  0.05537841  0.67232701     0.16360
H4649       H  0.54724026  0.01248527  0.70719305     0.16070
N4650       N  0.53120104  0.02287786  0.67711951     0.75160
O4651       O  0.61186827  0.04838858  0.69101187    -0.38290
O4652       O  0.60146833  0.04998392  0.71818246    -0.38230
O4653       O  0.52947078  0.01744293  0.66121435    -0.38940
O4654       O  0.51876894  0.02002624  0.68816766    -0.39000
C4655       C  0.71187275  0.64193452  0.84597879    -0.11280
C4656       C  0.70991475  0.66039613  0.84780506     0.05720
C4657       C  0.72404492  0.67159553  0.84226967    -0.06570
C4658       C  0.73984532  0.66419490  0.83568258    -0.07310
C4659       C  0.74209951  0.64570234  0.83447753    -0.01870
C4660       C  0.72770556  0.63448409  0.83939234     0.04950
N4661       N  0.72914430  0.61551730  0.83867302     0.67460
H4662       H  0.70122353  0.63312571  0.85022764     0.16360
H4663       H  0.75057819  0.67305693  0.83177344     0.16070
N4664       N  0.72264393  0.69053038  0.84320706     0.75160
O4665       O  0.72663512  0.60637958  0.85272857    -0.38290
O4666       O  0.72921386  0.60787556  0.82364357    -0.38230
O4667       O  0.72667854  0.69831264  0.85761665    -0.38940
O4668       O  0.72130546  0.69949927  0.82887605    -0.39000
C4669       C  0.64127858  0.73294993  0.84145567    -0.11280
C4670       C  0.64796470  0.73221318  0.85909515     0.05720
C4671       C  0.64760827  0.74792476  0.86949874    -0.06570
C4672       C  0.63978107  0.76346624  0.86235178    -0.07310
C4673       C  0.63247684  0.76392906  0.84493406    -0.01870
C4674       C  0.63351736  0.74840132  0.83436482     0.04950
N4675       N  0.62638341  0.74778681  0.81652877     0.67460
H4676       H  0.64147767  0.72118985  0.83314043     0.16360
H4677       H  0.63935468  0.77527719  0.87057859     0.16070
N4678       N  0.65514263  0.74849692  0.88721376     0.75160
O4679       O  0.63670772  0.74493561  0.80351430    -0.38290
O4680       O  0.60978578  0.74597850  0.81431086    -0.38230
O4681       O  0.67140775  0.74479087  0.88954698    -0.38940
O4682       O  0.64665324  0.75588224  0.89972595    -0.39000
C4683       C  0.70897685  0.67075335  0.93170886    -0.11280
C4684       C  0.69156770  0.66488545  0.92821376     0.05720
C4685       C  0.68350237  0.65251121  0.93995049    -0.06570
C4686       C  0.69290940  0.64629820  0.95490566    -0.07310
C4687       C  0.71047758  0.65171773  0.95822569    -0.01870
C4688       C  0.71880322  0.66405779  0.94641967     0.04950
N4689       N  0.73735511  0.66884821  0.94812185     0.67460
H4690       H  0.71521620  0.68002283  0.92245205     0.16360
H4691       H  0.68660042  0.63666455  0.96374755     0.16070
N4692       N  0.66579563  0.64604084  0.93687511     0.75160
O4693       O  0.74629422  0.67280552  0.93431161    -0.38290
O4694       O  0.74464430  0.67033041  0.96332364    -0.38230
O4695       O  0.66323397  0.63414898  0.92528077    -0.38940
O4696       O  0.65381817  0.64902411  0.94832839    -0.39000
C4697       C  0.58291820  0.64732015  0.89040125    -0.11280
C4698       C  0.58401629  0.63560906  0.90513967     0.05720
C4699       C  0.60076131  0.63219507  0.91322232    -0.06570
C4700       C  0.61590843  0.64101605  0.90652917    -0.07310
C4701       C  0.61478609  0.65307251  0.89208635    -0.01870
C4702       C  0.59804954  0.65640195  0.88389322     0.04950
N4703       N  0.59586129  0.66974605  0.87003628     0.67460
H4704       H  0.56992267  0.65033225  0.88475304     0.16360
H4705       H  0.62878016  0.63855310  0.91270255     0.16070
N4706       N  0.60260947  0.62011271  0.92826920     0.75160
O4707       O  0.58260304  0.66913633  0.85956043    -0.38290
O4708       O  0.60577310  0.68331929  0.86957740    -0.38230
O4709       O  0.59167006  0.60754322  0.93059773    -0.38940
O4710       O  0.61605753  0.62104080  0.93847555    -0.39000
C4711       C  0.49447422  0.67920529  0.92420761    -0.11280
C4712       C  0.51148366  0.67444890  0.91813396     0.05720
C4713       C  0.52016225  0.68533000  0.90536725    -0.06570
C4714       C  0.51158197  0.70036121  0.89855838    -0.07310
C4715       C  0.49436600  0.70488030  0.90413392    -0.01870
C4716       C  0.48570635  0.69429763  0.91728960     0.04950
N4717       N  0.46764710  0.69767308  0.92264749     0.67460
H4718       H  0.48764506  0.67071436  0.93379248     0.16360
H4719       H  0.51834361  0.70843043  0.88854807     0.16070
N4720       N  0.53764205  0.68119202  0.89899975     0.75160
O4721       O  0.45675396  0.68492233  0.92394314    -0.38290
O4722       O  0.46335604  0.71261235  0.92888919    -0.38230
O4723       O  0.53938411  0.67248479  0.88469254    -0.38940
O4724       O  0.55097013  0.68913104  0.90552462    -0.39000
C4725       C  0.37453157  0.50788482  0.89664814    -0.11280
C4726       C  0.38189763  0.52069965  0.90808007     0.05720
C4727       C  0.38355749  0.51690490  0.92665260    -0.06570
C4728       C  0.37829169  0.50003124  0.93304967    -0.07310
C4729       C  0.37141664  0.48706792  0.92145422    -0.01870
C4730       C  0.36906773  0.49113859  0.90298346     0.04950
N4731       N  0.36087423  0.47891433  0.89050791     0.67460
H4732       H  0.37331424  0.51093205  0.88243983     0.16360
H4733       H  0.37974268  0.49686745  0.94720308     0.16070
N4734       N  0.39127034  0.52941665  0.93900179     0.75160
O4735       O  0.35398850  0.48470001  0.87610776    -0.38290
O4736       O  0.36102695  0.46234067  0.89324749    -0.38230
O4737       O  0.38816370  0.54583953  0.93743988    -0.38940
O4738       O  0.39957624  0.52390586  0.95273123    -0.39000
C4739       C  0.46283441  0.59497149  0.88768069    -0.11280
C4740       C  0.45440246  0.58074236  0.89651244     0.05720
C4741       C  0.46245863  0.57328815  0.91208320    -0.06570
C4742       C  0.47849473  0.58065437  0.91861403    -0.07310
C4743       C  0.48679875  0.59500751  0.90986119    -0.01870
C4744       C  0.47867673  0.60251068  0.89436261     0.04950
N4745       N  0.48549131  0.61848823  0.88604899     0.67460
H4746       H  0.45638892  0.60098990  0.87609148     0.16360
H4747       H  0.48475922  0.57495263  0.93045800     0.16070
N4748       N  0.45493929  0.55800093  0.92105516     0.75160
O4749       O  0.48272750  0.62145228  0.86956219    -0.38290
O4750       O  0.49178696  0.63084501  0.89555385    -0.38230
O4751       O  0.44710572  0.54605856  0.91218047    -0.38940
O4752       O  0.45799038  0.55529949  0.93753722    -0.39000
C4753       C  0.36847045  0.54920119  0.81929402    -0.11280
C4754       C  0.38288019  0.54102644  0.82814260     0.05720
C4755       C  0.38975130  0.52489811  0.82138762    -0.06570
C4756       C  0.38226592  0.51767331  0.80569516    -0.07310
C4757       C  0.36765603  0.52574790  0.79701667    -0.01870
C4758       C  0.36086727  0.54190222  0.80380775     0.04950
N4759       N  0.34674344  0.55142718  0.79488124     0.67460
H4760       H  0.36327842  0.56166767  0.82428316     0.16360
H4761       H  0.38725408  0.50509562  0.80079934     0.16070
N4762       N  0.40328779  0.51502876  0.83087268     0.75160
O4763       O  0.33508901  0.55943263  0.80396744    -0.38290
O4764       O  0.34751101  0.55424942  0.77817341    -0.38230
O4765       O  0.40226779  0.51294506  0.84767969    -0.38940
O4766       O  0.41448482  0.50594608  0.82225646    -0.39000
C4767       C  0.29859783  0.74735219  0.83626452    -0.11280
C4768       C  0.31204585  0.73811780  0.84551879     0.05720
C4769       C  0.31806123  0.74438587  0.86234948    -0.06570
C4770       C  0.31047115  0.75982369  0.86945345    -0.07310
C4771       C  0.29751325  0.76941908  0.85988338    -0.01870
C4772       C  0.29102131  0.76280736  0.84340914     0.04950
N4773       N  0.27632702  0.77118822  0.83425944     0.67460
H4774       H  0.29381358  0.74232115  0.82352643     0.16360
H4775       H  0.31567915  0.76511790  0.88191574     0.16070
N4776       N  0.33287509  0.73629999  0.87159090     0.75160
O4777       O  0.27506667  0.77045051  0.81737000    -0.38290
O4778       O  0.26328846  0.77698209  0.84315444    -0.38230
O4779       O  0.34688579  0.73254684  0.86308823    -0.38940
O4780       O  0.33328360  0.73599376  0.88854022    -0.39000
C4781       C  0.31772827  0.66007928  0.77002338    -0.11280
C4782       C  0.31775112  0.67857280  0.77080220     0.05720
C4783       C  0.31182987  0.68864280  0.75566704    -0.06570
C4784       C  0.30655767  0.67937302  0.73998584    -0.07310
C4785       C  0.30670103  0.66068897  0.73938269    -0.01870
C4786       C  0.31241739  0.65107289  0.75467291     0.04950
N4787       N  0.31462398  0.63220279  0.75452553     0.67460
H4788       H  0.32235288  0.65239039  0.78152158     0.16360
H4789       H  0.30201039  0.68668410  0.72825241     0.16070
N4790       N  0.31022408  0.70780266  0.75605120     0.75160
O4791       O  0.32891191  0.62577734  0.76078275    -0.38290
O4792       O  0.30119300  0.62222641  0.75286894    -0.38230
O4793       O  0.31508694  0.71662776  0.76955239    -0.38940
O4794       O  0.30292817  0.71600981  0.74312208    -0.39000
C4795       C  0.37654455  0.64537671  0.85047210    -0.11280
C4796       C  0.35812953  0.64509719  0.84698489     0.05720
C4797       C  0.34786993  0.63048968  0.85316576    -0.06570
C4798       C  0.35648753  0.61647212  0.86244410    -0.07310
C4799       C  0.37503908  0.61657524  0.86532413    -0.01870
C4800       C  0.38507715  0.63154089  0.85980841     0.04950
N4801       N  0.40382160  0.63305254  0.86384741     0.67460
H4802       H  0.38436183  0.65675135  0.84618245     0.16360
H4803       H  0.34886796  0.60481365  0.86629394     0.16070
N4804       N  0.32916161  0.62896890  0.84905654     0.75160
O4805       O  0.41391619  0.64205679  0.85372947    -0.38290
O4806       O  0.40991553  0.62728765  0.87860921    -0.38230
O4807       O  0.32321835  0.63406339  0.83399184    -0.38940
O4808       O  0.31900686  0.62029094  0.85939587    -0.39000
C4809       C  0.40351689  0.72412953  0.82540107    -0.11280
C4810       C  0.39174188  0.71534675  0.83710532     0.05720
C4811       C  0.39633340  0.71357606  0.85549195    -0.06570
C4812       C  0.41203138  0.72118577  0.86179255    -0.07310
C4813       C  0.42369556  0.73025298  0.85028956    -0.01870
C4814       C  0.41939601  0.73183209  0.83180924     0.04950
N4815       N  0.43030489  0.74193584  0.81962200     0.67460
H4816       H  0.39994879  0.72573825  0.81137170     0.16360
H4817       H  0.41537082  0.71950346  0.87587996     0.16070
N4818       N  0.38555045  0.70366767  0.86794993     0.75160
O4819       O  0.43218754  0.73684018  0.80362483    -0.38290
O4820       O  0.43553947  0.75731022  0.82384044    -0.38230
O4821       O  0.38183456  0.68760651  0.86486031    -0.38940
O4822       O  0.38225426  0.70996023  0.88325555    -0.39000
C4823       C  0.63333488  0.66331689  0.23640876    -0.11280
C4824       C  0.65071835  0.65657395  0.23502423     0.05720
C4825       C  0.66225375  0.65760302  0.25007376    -0.06570
C4826       C  0.65558629  0.66373904  0.26647175    -0.07310
C4827       C  0.63783457  0.66941545  0.26823274    -0.01870
C4828       C  0.62670941  0.66958885  0.25280983     0.04950
N4829       N  0.60838854  0.67495697  0.25367192     0.67460
H4830       H  0.62438458  0.66257366  0.22498198     0.16360
H4831       H  0.66447126  0.66422660  0.27796144     0.16070
N4832       N  0.68077599  0.65275982  0.24891026     0.75160
O4833       O  0.60213105  0.68529114  0.24179478    -0.38290
O4834       O  0.59778533  0.66679409  0.26397075    -0.38230
O4835       O  0.68990605  0.65759555  0.23551479    -0.38940
O4836       O  0.68861674  0.64582482  0.26226027    -0.39000
C4837       C  0.72006610  0.66126614  0.17376172    -0.11280
C4838       C  0.71690530  0.64291825  0.17248263     0.05720
C4839       C  0.73053048  0.63182183  0.16570437    -0.06570
C4840       C  0.74697633  0.63938019  0.16071250    -0.07310
C4841       C  0.74991752  0.65781392  0.16153986    -0.01870
C4842       C  0.73633749  0.66884513  0.16846773     0.04950
N4843       N  0.73894300  0.68764425  0.17063501     0.67460
H4844       H  0.70983139  0.66981101  0.17923388     0.16360
H4845       H  0.75709381  0.63092899  0.15488852     0.16070
N4846       N  0.72752029  0.61324185  0.16243075     0.75160
O4847       O  0.72599416  0.69822554  0.16871422    -0.38290
O4848       O  0.75345314  0.69343873  0.17692129    -0.38230
O4849       O  0.71346841  0.60827313  0.15453209    -0.38940
O4850       O  0.74009947  0.60225341  0.16448903    -0.39000
C4851       C  0.64901319  0.57079620  0.23057504    -0.11280
C4852       C  0.64649569  0.57380496  0.21213915     0.05720
C4853       C  0.63518858  0.56244197  0.20222342    -0.06570
C4854       C  0.62650450  0.54845160  0.21114468    -0.07310
C4855       C  0.62867451  0.54561796  0.22967181    -0.01870
C4856       C  0.63981705  0.55714888  0.23961411     0.04950
N4857       N  0.64073963  0.55624196  0.25890143     0.67460
H4858       H  0.65708626  0.58001702  0.23822278     0.16360
H4859       H  0.61807740  0.53955132  0.20349691     0.16070
N4860       N  0.63248822  0.56479908  0.18317554     0.75160
O4861       O  0.65495070  0.56051138  0.26692298    -0.38290
O4862       O  0.62666496  0.55426042  0.26796872    -0.38230
O4863       O  0.64499332  0.57033956  0.17328863    -0.38940
O4864       O  0.61813987  0.55973219  0.17590294    -0.39000
C4865       C  0.56041938  0.59988442  0.01350387    -0.11280
C4866       C  0.57587219  0.58951446  0.01135552     0.05720
C4867       C  0.58160922  0.58571718  0.99365086    -0.06570
C4868       C  0.57198529  0.59228772  0.97889961    -0.07310
C4869       C  0.55663386  0.60268416  0.98099827    -0.01870
C4870       C  0.55084694  0.60658394  0.99861578     0.04950
N4871       N  0.53517455  0.61696119  0.00175816     0.67460
H4872       H  0.55578707  0.60300247  0.02688214     0.16360
H4873       H  0.57675043  0.58926772  0.96553719     0.16070
N4874       N  0.59737990  0.57559651  0.99014510     0.75160
O4875       O  0.52296521  0.61072351  0.01159286    -0.38290
O4876       O  0.53530665  0.63340000  0.99823490    -0.38230
O4877       O  0.59739971  0.55908542  0.99330928    -0.38940
O4878       O  0.60909386  0.58199889  0.97980476    -0.39000
C4879       C  0.57195377  0.51474384  0.07450847    -0.11280
C4880       C  0.58965999  0.51992837  0.07756475     0.05720
C4881       C  0.60138540  0.50824961  0.08680657    -0.06570
C4882       C  0.59510422  0.49148815  0.09233357    -0.07310
C4883       C  0.57728302  0.48647680  0.08958972    -0.01870
C4884       C  0.56561109  0.49812027  0.08029688     0.04950
N4885       N  0.54749165  0.49315071  0.07629026     0.67460
H4886       H  0.56308725  0.52358815  0.06718270     0.16360
H4887       H  0.60383789  0.48280729  0.10001854     0.16070
N4888       N  0.61912137  0.51362405  0.09191585     0.75160
O4889       O  0.53556288  0.50492003  0.07480937    -0.38290
O4890       O  0.54373891  0.47732148  0.07218558    -0.38230
O4891       O  0.62193766  0.52914842  0.09762050    -0.38940
O4892       O  0.63133642  0.50216078  0.09348606    -0.39000
C4893       C  0.64252651  0.60233459  0.10717517    -0.11280
C4894       C  0.62415534  0.59871819  0.10671357     0.05720
C4895       C  0.61344247  0.60355112  0.12149405    -0.06570
C4896       C  0.62154826  0.61165067  0.13645230    -0.07310
C4897       C  0.64007521  0.61442911  0.13719502    -0.01870
C4898       C  0.65062173  0.61023686  0.12210491     0.04950
N4899       N  0.66946503  0.61399048  0.12166053     0.67460
H4900       H  0.65067589  0.59902624  0.09567396     0.16360
H4901       H  0.61354999  0.61448620  0.14818036     0.16070
N4902       N  0.59480217  0.59906786  0.12226573     0.75160
O4903       O  0.67981391  0.60438000  0.11256457    -0.38290
O4904       O  0.67552856  0.62800741  0.12864450    -0.38230
O4905       O  0.58938072  0.58423984  0.11657274    -0.38940
O4906       O  0.58418639  0.60869517  0.13101945    -0.39000
C4907       C  0.67119405  0.58902475  0.04737998    -0.11280
C4908       C  0.65907766  0.58126196  0.03543487     0.05720
C4909       C  0.66390948  0.57854094  0.01731356    -0.06570
C4910       C  0.68051386  0.58485827  0.01142782    -0.07310
C4911       C  0.69200062  0.59386231  0.02312839    -0.01870
C4912       C  0.68783941  0.59503352  0.04155496     0.04950
N4913       N  0.70036542  0.60199608  0.05444001     0.67460
H4914       H  0.66756719  0.59042732  0.06138402     0.16360
H4915       H  0.68392144  0.58395419  0.99733146     0.16070
N4916       N  0.65189508  0.57066226  0.00449202     0.75160
O4917       O  0.69488985  0.60846969  0.06901403    -0.38290
O4918       O  0.71688732  0.59943024  0.05249359    -0.38230
O4919       O  0.63524991  0.57243632  0.00603392    -0.38940
O4920       O  0.65794156  0.56343949  0.99052342    -0.39000
loop_ 
_geom_bond_atom_site_label_1 
_geom_bond_atom_site_label_2 
_geom_bond_distance 
_geom_bond_site_symmetry_2 
_ccdc_geom_bond_type 
O1            C4   1.269       .  A
O1           Cd6   2.459       .  S
C2           O11   1.266       .  A
C2            O7   1.264       .  A
C2         C4880   1.475       .  S
O3            C9   1.271       .  A
O3           Cd6   2.516       .  S
C4           O12   1.265       .  A
C4         C4908   1.461       .  S
C5           O10   1.270       .  A
C5            O8   1.262       .  A
C5         C4866   1.494       .  S
Cd6          O13   2.414       .  S
Cd6          O12   2.392       .  S
Cd6          O11   2.461       .  S
Cd6           O7   2.456       .  S
Cd6          O10   2.516       .  S
Cd6           O8   2.440       .  S
C9           O13   1.262       .  A
C9         C4894   1.480       .  S
O14          C17   1.270       .  A
O14         Cd19   2.494       .  S
C15          O24   1.266       .  A
C15          O20   1.271       .  A
C15        C4897   1.479       .  S
O16          C22   1.269       .  A
O16         Cd19   2.481       .  S
C17          O25   1.264       .  A
C17        C4824   1.483       .  S
C18          O23   1.269       .  A
C18          O21   1.263       .  A
C18        C4852   1.470       .  S
Cd19         O26   2.440       .  S
Cd19         O25   2.420       .  S
Cd19         O24   2.417       .  S
Cd19         O20   2.489       .  S
Cd19         O23   2.485       .  S
Cd19         O21   2.417       .  S
C22          O26   1.267       .  A
C22        C4838   1.484       .  S
O27          C30   1.268       .  A
O27         Cd32   2.464       .  S
C28          O37   1.265       .  A
C28          O33   1.271       .  A
C28        C4796   1.483       .  S
O29          C35   1.268       .  A
O29         Cd32   2.481       .  S
C30          O38   1.265       .  A
C30        C4768   1.470       .  S
C31          O36   1.272       .  A
C31          O34   1.259       .  A
C31        C4810   1.476       .  S
Cd32         O39   2.426       .  S
Cd32         O38   2.440       .  S
Cd32         O37   2.423       .  S
Cd32         O33   2.508       .  S
Cd32         O36   2.503       .  S
Cd32         O34   2.352       .  S
C35          O39   1.267       .  A
C35        C4782   1.474       .  S
O40          C43   1.270       .  A
O40         Cd45   2.492       .  S
C41          O50   1.265       .  A
C41          O46   1.270       .  A
C41        C4799   1.481       .  S
O42          C48   1.268       .  A
O42         Cd45   2.488       .  S
C43          O51   1.265       .  A
C43        C4726   1.476       .  S
C44          O49   1.271       .  A
C44          O47   1.263       .  A
C44        C4754   1.480       .  S
Cd45         O52   2.480       .  S
Cd45         O51   2.419       .  S
Cd45         O50   2.426       .  S
Cd45         O46   2.505       .  S
Cd45         O49   2.499       .  S
Cd45         O47   2.418       .  S
C48          O52   1.267       .  A
C48        C4740   1.485       .  S
O53          C56   1.267       .  A
O53         Cd58   2.490       .  S
C54          O63   1.265       .  A
C54          O59   1.271       .  A
C54        C4698   1.474       .  S
O55          C61   1.269       .  A
O55         Cd58   2.496       .  S
C56          O64   1.264       .  A
C56        C4743   1.482       .  S
C57          O62   1.268       .  A
C57          O60   1.269       .  A
C57        C4869   1.490       .  S
Cd58         O65   2.388       .  S
Cd58         O64   2.481       .  S
Cd58         O63   2.432       .  S
Cd58         O59   2.498       .  S
Cd58         O62   2.487       .  S
Cd58         O60   2.447       .  S
C61          O65   1.259       .  A
C61        C4712   1.471       .  S
O66          C69   1.270       .  A
O66         Cd71   2.491       .  S
C67          O76   1.263       .  A
C67          O72   1.270       .  A
C67        C4701   1.477       .  S
O68          C74   1.270       .  A
O68         Cd71   2.485       .  S
C69          O77   1.263       .  A
C69        C4656   1.486       .  S
C70          O75   1.268       .  A
C70          O73   1.267       .  A
C70        C4670   1.493       .  S
Cd71         O78   2.397       .  S
Cd71         O77   2.441       .  S
Cd71         O76   2.436       .  S
Cd71         O72   2.504       .  S
Cd71         O75   2.490       .  S
Cd71         O73   2.446       .  S
C74          O78   1.262       .  A
C74        C4684   1.470       .  S
O79          C82   1.271       .  A
O79         Cd84   2.504       .  S
C80          O89   1.265       .  A
C80          O85   1.271       .  A
C80        C4628   1.487       .  S
O81          C87   1.268       .  A
O81         Cd84   2.479       .  S
C82          O90   1.263       .  A
C82        C4600   1.478       .  S
C83          O88   1.271       .  A
C83          O86   1.265       .  A
C83        C4642   1.480       .  S
Cd84         O91   2.445       .  S
Cd84         O90   2.418       .  S
Cd84         O89   2.415       .  S
Cd84         O85   2.513       .  S
Cd84         O88   2.493       .  S
Cd84         O86   2.388       .  S
C87          O91   1.267       .  A
C87        C4617   1.483       .  S
O92          C95   1.267       .  A
O92         Cd97   2.486       .  S
C93         O102   1.265       .  A
C93          O98   1.270       .  A
C93        C4586   1.475       .  S
O94         C100   1.269       .  A
O94         Cd97   2.505       .  S
C95         O103   1.267       .  A
C95        C4572   1.492       .  S
C96         O101   1.272       .  A
C96          O99   1.264       .  A
C96        C4631   1.487       .  S
Cd97        O104   2.428       .  S
Cd97        O103   2.451       .  S
Cd97        O102   2.405       .  S
Cd97         O98   2.484       .  S
Cd97        O101   2.513       .  S
Cd97         O99   2.411       .  S
C100        O104   1.264       .  A
C100       C4558   1.484       .  S
O105        C108   1.266       .  A
O105       Cd110   2.487       .  S
C106        O115   1.265       .  A
C106        O111   1.267       .  A
C106       C4502   1.471       .  S
O107        C113   1.267       .  A
O107       Cd110   2.511       .  S
C108        O116   1.264       .  A
C108       C4530   1.486       .  S
C109        O114   1.268       .  A
C109        O112   1.268       .  A
C109       C4516   1.484       .  S
Cd110       O117   2.428       .  S
Cd110       O116   2.452       .  S
Cd110       O115   2.467       .  S
Cd110       O111   2.461       .  S
Cd110       O114   2.473       .  S
Cd110       O112   2.445       .  S
C113        O117   1.259       .  A
C113       C4544   1.483       .  S
O118        C121   1.268       .  A
O118       Cd123   2.475       .  S
C119        O128   1.265       .  A
C119        O124   1.269       .  A
C119       C4488   1.482       .  S
O120        C126   1.272       .  A
O120       Cd123   2.511       .  S
C121        O129   1.267       .  A
C121       C4474   1.488       .  S
C122        O127   1.270       .  A
C122        O125   1.264       .  A
C122       C4533   1.478       .  S
Cd123       O130   2.413       .  S
Cd123       O129   2.457       .  S
Cd123       O128   2.406       .  S
Cd123       O124   2.488       .  S
Cd123       O127   2.501       .  S
Cd123       O125   2.414       .  S
C126        O130   1.264       .  A
C126       C4460   1.487       .  S
O131        C134   1.272       .  A
O131       Cd136   2.494       .  S
C132        O141   1.263       .  A
C132        O137   1.272       .  A
C132       C4432   1.485       .  S
O133        C139   1.273       .  A
O133       Cd136   2.476       .  S
C134        O142   1.265       .  A
C134       C4477   1.487       .  S
C135        O140   1.268       .  A
C135        O138   1.267       .  A
C135       C4603   1.476       .  S
Cd136       O143   2.367       .  S
Cd136       O142   2.422       .  S
Cd136       O141   2.420       .  S
Cd136       O137   2.508       .  S
Cd136       O140   2.478       .  S
Cd136       O138   2.445       .  S
C139        O143   1.264       .  A
C139       C4446   1.471       .  S
O144        C147   1.267       .  A
O144       Cd149   2.475       .  S
C145        O154   1.261       .  A
C145        O150   1.269       .  A
C145       C4418   1.465       .  S
O146        C152   1.270       .  A
O146       Cd149   2.496       .  S
C147        O155   1.267       .  A
C147       C4404   1.477       .  S
C148        O153   1.269       .  A
C148        O151   1.264       .  A
C148       C4390   1.488       .  S
Cd149       O156   2.433       .  S
Cd149       O155   2.452       .  S
Cd149       O154   2.381       .  S
Cd149       O150   2.490       .  S
Cd149       O153   2.500       .  S
Cd149       O151   2.419       .  S
C152        O156   1.266       .  A
C152       C4435   1.485       .  S
O157        C160   1.270       .  A
O157       Cd162   2.494       .  S
C158        O167   1.264       .  A
C158        O163   1.270       .  A
C158       C4362   1.480       .  S
O159        C165   1.268       .  A
O159       Cd162   2.473       .  S
C160        O168   1.265       .  A
C160       C4614   1.488       .  S
C161        O166   1.267       .  A
C161        O164   1.267       .  A
C161       C4348   1.473       .  S
Cd162       O169   2.404       .  S
Cd162       O168   2.425       .  S
Cd162       O167   2.426       .  S
Cd162       O163   2.497       .  S
Cd162       O166   2.460       .  S
Cd162       O164   2.455       .  S
C165        O169   1.262       .  A
C165       C4376   1.462       .  S
O170        C173   1.272       .  A
O170       Cd175   2.486       .  S
C171        O180   1.263       .  A
C171        O176   1.271       .  A
C171       C4365   1.481       .  S
O172        C178   1.269       .  A
O172       Cd175   2.462       .  S
C173        O181   1.265       .  A
C173       C4306   1.479       .  S
C174        O179   1.267       .  A
C174        O177   1.266       .  A
C174       C4320   1.476       .  S
Cd175       O182   2.397       .  S
Cd175       O181   2.401       .  S
Cd175       O180   2.423       .  S
Cd175       O176   2.506       .  S
Cd175       O179   2.473       .  S
Cd175       O177   2.424       .  S
C178        O182   1.263       .  A
C178       C4334   1.462       .  S
O183        C186   1.265       .  A
O183       Cd188   2.456       .  S
C184        O193   1.263       .  A
C184        O189   1.267       .  A
C184       C4292   1.459       .  S
O185        C191   1.271       .  A
O185       Cd188   2.496       .  S
C186        O194   1.268       .  A
C186       C4264   1.486       .  S
C187        O192   1.269       .  A
C187        O190   1.265       .  A
C187       C4278   1.492       .  S
Cd188       O195   2.414       .  S
Cd188       O194   2.447       .  S
Cd188       O193   2.410       .  S
Cd188       O189   2.458       .  S
Cd188       O192   2.507       .  S
Cd188       O190   2.439       .  S
C191        O195   1.263       .  A
C191       C4250   1.483       .  S
O196        C199   1.272       .  A
O196       Cd201   2.466       .  S
C197        O206   1.267       .  A
C197        O202   1.269       .  A
C197       C4222   1.483       .  S
O198        C204   1.275       .  A
O198       Cd201   2.526       .  S
C199        O207   1.263       .  A
C199       C4236   1.466       .  S
C200        O205   1.272       .  A
C200        O203   1.266       .  A
C200       C4208   1.491       .  S
Cd201       O208   2.419       .  S
Cd201       O207   2.357       .  S
Cd201       O206   2.425       .  S
Cd201       O202   2.478       .  S
Cd201       O205   2.503       .  S
Cd201       O203   2.455       .  S
C204        O208   1.262       .  A
C204       C4281   1.495       .  S
O209        C212   1.270       .  A
O209       Cd214   2.485       .  S
C210        O219   1.267       .  A
C210        O215   1.268       .  A
C210       C4393   1.485       .  S
O211        C217   1.270       .  A
O211       Cd214   2.500       .  S
C212        O220   1.264       .  A
C212       C4194   1.474       .  S
C213        O218   1.270       .  A
C213        O216   1.264       .  A
C213       C4673   1.491       .  S
Cd214       O221   2.428       .  S
Cd214       O220   2.387       .  S
Cd214       O219   2.439       .  S
Cd214       O215   2.475       .  S
Cd214       O218   2.494       .  S
Cd214       O216   2.434       .  S
C217        O221   1.263       .  A
C217       C4180   1.475       .  S
O222        C225   1.268       .  A
O222       Cd227   2.479       .  S
C223        O232   1.264       .  A
C223        O228   1.269       .  A
C223       C4183   1.478       .  S
O224        C230   1.267       .  A
O224       Cd227   2.484       .  S
C225        O233   1.266       .  A
C225       C4138   1.481       .  S
C226        O231   1.268       .  A
C226        O229   1.263       .  A
C226       C4166   1.480       .  S
Cd227       O234   2.442       .  S
Cd227       O233   2.456       .  S
Cd227       O232   2.438       .  S
Cd227       O228   2.497       .  S
Cd227       O231   2.496       .  S
Cd227       O229   2.398       .  S
C230        O234   1.267       .  A
C230       C4152   1.489       .  S
O235        C238   1.273       .  A
O235       Cd240   2.494       .  S
C236        O245   1.264       .  A
C236        O241   1.271       .  A
C236       C4110   1.480       .  S
O237        C243   1.272       .  A
O237       Cd240   2.484       .  S
C238        O246   1.266       .  A
C238       C4096   1.484       .  S
C239        O244   1.269       .  A
C239        O242   1.269       .  A
C239       C4141   1.480       .  S
Cd240       O247   2.376       .  S
Cd240       O246   2.426       .  S
Cd240       O245   2.424       .  S
Cd240       O241   2.504       .  S
Cd240       O244   2.463       .  S
Cd240       O242   2.458       .  S
C243        O247   1.261       .  A
C243       C4124   1.478       .  S
O248        C251   1.271       .  A
O248       Cd253   2.475       .  S
C249        O258   1.265       .  A
C249        O254   1.268       .  A
C249       C4068   1.483       .  S
O250        C256   1.272       .  A
O250       Cd253   2.502       .  S
C251        O259   1.265       .  A
C251       C4082   1.479       .  S
C252        O257   1.272       .  A
C252        O255   1.264       .  A
C252       C4113   1.481       .  S
Cd253       O260   2.422       .  S
Cd253       O259   2.368       .  S
Cd253       O258   2.425       .  S
Cd253       O254   2.482       .  S
Cd253       O257   2.509       .  S
Cd253       O255   2.428       .  S
C256        O260   1.263       .  A
C256       C4575   1.490       .  S
O261        C264   1.268       .  A
O261       Cd266   2.452       .  S
C262        O271   1.263       .  A
C262        O267   1.266       .  A
C262       C4043   1.487       .  S
O263        C269   1.264       .  A
O263       Cd266   2.457       .  S
C264        O272   1.266       .  A
C264       C4012   1.471       .  S
C265        O270   1.267       .  A
C265        O268   1.263       .  A
C265       C4054   1.460       .  S
Cd266       O273   2.454       .  S
Cd266       O272   2.405       .  S
Cd266       O271   2.407       .  S
Cd266       O267   2.498       .  S
Cd266       O270   2.459       .  S
Cd266       O268   2.408       .  S
C269        O273   1.265       .  A
C269       C4026   1.472       .  S
O274        C277   1.270       .  A
O274       Cd279   2.483       .  S
C275        O284   1.267       .  A
C275        O280   1.270       .  A
C275       C4099   1.482       .  S
O276        C282   1.273       .  A
O276       Cd279   2.496       .  S
C277        O285   1.263       .  A
C277       C4001   1.470       .  S
C278        O283   1.272       .  A
C278        O281   1.266       .  A
C278       C3984   1.481       .  S
Cd279       O286   2.390       .  S
Cd279       O285   2.432       .  S
Cd279       O284   2.438       .  S
Cd279       O280   2.486       .  S
Cd279       O283   2.483       .  S
Cd279       O281   2.407       .  S
C282        O286   1.262       .  A
C282       C4040   1.486       .  S
O287        C290   1.270       .  A
O287       Cd292   2.492       .  S
C288        O297   1.265       .  A
C288        O293   1.269       .  A
C288       C3956   1.478       .  S
O289        C295   1.269       .  A
O289       Cd292   2.480       .  S
C290        O298   1.265       .  A
C290       C4323   1.477       .  S
C291        O296   1.271       .  A
C291        O294   1.263       .  A
C291       C3970   1.483       .  S
Cd292       O299   2.440       .  S
Cd292       O298   2.410       .  S
Cd292       O297   2.410       .  S
Cd292       O293   2.488       .  S
Cd292       O296   2.499       .  S
Cd292       O294   2.362       .  S
C295        O299   1.266       .  A
C295       C3942   1.489       .  S
O300        C303   1.273       .  A
O300       Cd305   2.499       .  S
C301        O310   1.262       .  A
C301        O306   1.272       .  A
C301       C3959   1.483       .  S
O302        C308   1.270       .  A
O302       Cd305   2.494       .  S
C303        O311   1.265       .  A
C303       C3900   1.489       .  S
C304        O309   1.274       .  A
C304        O307   1.263       .  A
C304       C3928   1.479       .  S
Cd305       O312   2.461       .  S
Cd305       O311   2.407       .  S
Cd305       O310   2.412       .  S
Cd305       O306   2.509       .  S
Cd305       O309   2.483       .  S
Cd305       O307   2.390       .  S
C308        O312   1.267       .  A
C308       C3914   1.492       .  S
O313        C316   1.271       .  A
O313       Cd318   2.507       .  S
C314        O323   1.263       .  A
C314        O319   1.272       .  A
C314       C3872   1.482       .  S
O315        C321   1.271       .  A
O315       Cd318   2.500       .  S
C316        O324   1.266       .  A
C316       C3917   1.493       .  S
C317        O322   1.269       .  A
C317        O320   1.266       .  A
C317       C3858   1.494       .  S
Cd318       O325   2.406       .  S
Cd318       O324   2.454       .  S
Cd318       O323   2.422       .  S
Cd318       O319   2.525       .  S
Cd318       O322   2.490       .  S
Cd318       O320   2.452       .  S
C321        O325   1.262       .  A
C321       C3886   1.481       .  S
O326        C329   1.270       .  A
O326       Cd331   2.487       .  S
C327        O336   1.261       .  A
C327        O332   1.271       .  A
C327       C4267   1.485       .  S
O328        C334   1.268       .  A
O328       Cd331   2.488       .  S
C329        O337   1.266       .  A
C329       C3875   1.471       .  S
C330        O335   1.272       .  A
C330        O333   1.263       .  A
C330       C3844   1.475       .  S
Cd331       O338   2.444       .  S
Cd331       O337   2.414       .  S
Cd331       O336   2.402       .  S
Cd331       O332   2.486       .  S
Cd331       O335   2.478       .  S
Cd331       O333   2.371       .  S
C334        O338   1.265       .  A
C334       C4561   1.480       .  S
O339        C342   1.271       .  A
O339       Cd344   2.469       .  S
C340        O349   1.267       .  A
C340        O345   1.266       .  A
C340       C4729   1.471       .  S
O341        C347   1.272       .  A
O341       Cd344   2.511       .  S
C342        O350   1.263       .  A
C342       C3830   1.465       .  S
C343        O348   1.274       .  A
C343        O346   1.262       .  A
C343       C3816   1.497       .  S
Cd344       O351   2.429       .  S
Cd344       O350   2.372       .  S
Cd344       O349   2.451       .  S
Cd344       O345   2.466       .  S
Cd344       O348   2.532       .  S
Cd344       O346   2.409       .  S
C347        O351   1.264       .  A
C347       C3802   1.489       .  S
O352        C355   1.263       .  A
O352       Cd357   2.433       .  S
C353        O362   1.263       .  A
C353        O358   1.266       .  A
C353       C3791   1.456       .  S
O354        C360   1.270       .  A
O354       Cd357   2.520       .  S
C355        O363   1.268       .  A
C355       C3774   1.477       .  S
C356        O361   1.271       .  A
C356        O359   1.263       .  A
C356       C3945   1.492       .  S
Cd357       O364   2.434       .  S
Cd357       O363   2.464       .  S
Cd357       O362   2.394       .  S
Cd357       O358   2.463       .  S
Cd357       O361   2.515       .  S
Cd357       O359   2.415       .  S
C360        O364   1.264       .  A
C360       C3819   1.494       .  S
O365        C368   1.268       .  A
O365       Cd370   2.463       .  S
C366        O375   1.262       .  A
C366        O371   1.270       .  A
C366       C3760   1.481       .  S
O367        C373   1.271       .  A
O367       Cd370   2.491       .  S
C368        O376   1.267       .  A
C368       C3732   1.471       .  S
C369        O374   1.268       .  A
C369        O372   1.264       .  A
C369       C4029   1.472       .  S
Cd370       O377   2.420       .  S
Cd370       O376   2.426       .  S
Cd370       O375   2.356       .  S
Cd370       O371   2.507       .  S
Cd370       O374   2.464       .  S
Cd370       O372   2.438       .  S
C373        O377   1.264       .  A
C373       C3746   1.477       .  S
O378        C381   1.265       .  A
O378       Cd383   2.438       .  S
C379        O388   1.263       .  A
C379        O384   1.266       .  A
C379       C3718   1.473       .  S
O380        C386   1.269       .  A
O380       Cd383   2.500       .  S
C381        O389   1.267       .  A
C381       C3704   1.475       .  S
C382        O387   1.268       .  A
C382        O385   1.264       .  A
C382       C4883   1.475       .  S
Cd383       O390   2.433       .  S
Cd383       O389   2.463       .  S
Cd383       O388   2.362       .  S
Cd383       O384   2.473       .  S
Cd383       O387   2.476       .  S
Cd383       O385   2.429       .  S
C386        O390   1.262       .  A
C386       C3749   1.475       .  S
O391        C394   1.271       .  A
O391       Cd396   2.481       .  S
C392        O401   1.266       .  A
C392        O397   1.271       .  A
C392       C3676   1.487       .  S
O393        C399   1.271       .  A
O393       Cd396   2.492       .  S
C394        O402   1.264       .  A
C394       C3648   1.485       .  S
C395        O400   1.270       .  A
C395        O398   1.266       .  A
C395       C3662   1.484       .  S
Cd396       O403   2.384       .  S
Cd396       O402   2.417       .  S
Cd396       O401   2.408       .  S
Cd396       O397   2.502       .  S
Cd396       O400   2.483       .  S
Cd396       O398   2.421       .  S
C399        O403   1.264       .  A
C399       C3690   1.480       .  S
O404        C407   1.270       .  A
O404       Cd409   2.486       .  S
C405        O414   1.263       .  A
C405        O410   1.272       .  A
C405       C3679   1.487       .  S
O406        C412   1.268       .  A
O406       Cd409   2.464       .  S
C407        O415   1.265       .  A
C407       C3620   1.490       .  S
C408        O413   1.267       .  A
C408        O411   1.269       .  A
C408       C3987   1.482       .  S
Cd409       O416   2.392       .  S
Cd409       O415   2.430       .  S
Cd409       O414   2.405       .  S
Cd409       O410   2.510       .  S
Cd409       O413   2.456       .  S
Cd409       O411   2.442       .  S
C412        O416   1.262       .  A
C412       C3637   1.458       .  S
O417        C420   1.271       .  A
O417       Cd422   2.498       .  S
C418        O427   1.263       .  A
C418        O423   1.270       .  A
C418       C3592   1.483       .  S
O419        C425   1.264       .  A
O419       Cd422   2.459       .  S
C420        O428   1.264       .  A
C420       C3578   1.487       .  S
C421        O426   1.267       .  A
C421        O424   1.264       .  A
C421       C3606   1.459       .  S
Cd422       O429   2.455       .  S
Cd422       O428   2.426       .  S
Cd422       O427   2.415       .  S
Cd422       O423   2.517       .  S
Cd422       O426   2.453       .  S
Cd422       O424   2.411       .  S
C425        O429   1.267       .  A
C425       C3651   1.487       .  S
O430        C433   1.267       .  A
O430       Cd435   2.462       .  S
C431        O440   1.266       .  A
C431        O436   1.270       .  A
C431       C3595   1.479       .  S
O432        C438   1.269       .  A
O432       Cd435   2.490       .  S
C433        O441   1.265       .  A
C433       C3707   1.476       .  S
C434        O439   1.269       .  A
C434        O437   1.261       .  A
C434       C3564   1.468       .  S
Cd435       O442   2.456       .  S
Cd435       O441   2.448       .  S
Cd435       O440   2.418       .  S
Cd435       O436   2.493       .  S
Cd435       O439   2.493       .  S
Cd435       O437   2.423       .  S
C438        O442   1.267       .  A
C438       C3805   1.487       .  S
O443        C446   1.268       .  A
O443       Cd448   2.479       .  S
C444        O453   1.266       .  A
C444        O449   1.266       .  A
C444       C4505   1.463       .  S
O445        C451   1.270       .  A
O445       Cd448   2.488       .  S
C446        O454   1.263       .  A
C446       C3550   1.473       .  S
C447        O452   1.270       .  A
C447        O450   1.264       .  A
C447       C3536   1.494       .  S
Cd448       O455   2.417       .  S
Cd448       O454   2.374       .  S
Cd448       O453   2.448       .  S
Cd448       O449   2.431       .  S
Cd448       O452   2.527       .  S
Cd448       O450   2.423       .  S
C451        O455   1.264       .  A
C451       C3522   1.487       .  S
O456        C459   1.270       .  A
O456       Cd461   2.491       .  S
C457        O466   1.262       .  A
C457        O462   1.270       .  A
C457       C3508   1.464       .  S
O458        C464   1.272       .  A
O458       Cd461   2.525       .  S
C459        O467   1.268       .  A
C459       C3494   1.498       .  S
C460        O465   1.273       .  A
C460        O463   1.265       .  A
C460       C3480   1.494       .  S
Cd461       O468   2.410       .  S
Cd461       O467   2.465       .  S
Cd461       O466   2.409       .  S
Cd461       O462   2.481       .  S
Cd461       O465   2.510       .  S
Cd461       O463   2.431       .  S
C464        O468   1.262       .  A
C464       C3539   1.493       .  S
O469        C472   1.270       .  A
O469       Cd474   2.476       .  S
C470        O479   1.263       .  A
C470        O475   1.270       .  A
C470       C3452   1.484       .  S
O471        C477   1.270       .  A
O471       Cd474   2.474       .  S
C472        O480   1.264       .  A
C472       C3438   1.467       .  S
C473        O478   1.266       .  A
C473        O476   1.266       .  A
C473       C4771   1.472       .  S
Cd474       O481   2.368       .  S
Cd474       O480   2.421       .  S
Cd474       O479   2.416       .  S
Cd474       O475   2.511       .  S
Cd474       O478   2.457       .  S
Cd474       O476   2.450       .  S
C477        O481   1.263       .  A
C477       C3466   1.469       .  S
O482        C485   1.272       .  A
O482       Cd487   2.509       .  S
C483        O492   1.263       .  A
C483        O488   1.273       .  A
C483       C4155   1.490       .  S
O484        C490   1.268       .  A
O484       Cd487   2.475       .  S
C485        O493   1.264       .  A
C485       C3455   1.484       .  S
C486        O491   1.272       .  A
C486        O489   1.265       .  A
C486       C3424   1.471       .  S
Cd487       O494   2.427       .  S
Cd487       O493   2.410       .  S
Cd487       O492   2.409       .  S
Cd487       O488   2.502       .  S
Cd487       O491   2.471       .  S
Cd487       O489   2.384       .  S
C490        O494   1.267       .  A
C490       C3410   1.488       .  S
O495        C498   1.266       .  A
O495       Cd500   2.449       .  S
C496        O505   1.263       .  A
C496        O501   1.268       .  A
C496       C3396   1.457       .  S
O497        C503   1.271       .  A
O497       Cd500   2.536       .  S
C498        O506   1.268       .  A
C498       C3368   1.470       .  S
C499        O504   1.273       .  A
C499        O502   1.264       .  A
C499       C3354   1.485       .  S
Cd500       O507   2.440       .  S
Cd500       O506   2.466       .  S
Cd500       O505   2.395       .  S
Cd500       O501   2.457       .  S
Cd500       O504   2.510       .  S
Cd500       O502   2.414       .  S
C503        O507   1.262       .  A
C503       C3385   1.495       .  S
O508        C511   1.269       .  A
O508       Cd513   2.487       .  S
C509        O518   1.262       .  A
C509        O514   1.272       .  A
C509       C3340   1.488       .  S
O510        C516   1.272       .  A
O510       Cd513   2.544       .  S
C511        O519   1.266       .  A
C511       C3326   1.489       .  S
C512        O517   1.272       .  A
C512        O515   1.267       .  A
C512       C3315   1.494   1_455  S
Cd513       O520   2.434       .  S
Cd513       O519   2.471       .  S
Cd513       O518   2.393       .  S
Cd513       O514   2.505       .  S
Cd513       O517   2.513       .  S
Cd513       O515   2.474       .  S
C516        O520   1.263       .  A
C516       C3382   1.495       .  S
O521        C524   1.271       .  A
O521       Cd526   2.494       .  S
C522        O531   1.267       .  A
C522        O527   1.268       .  A
C522       C3357   1.480       .  S
O523        C529   1.271       .  A
O523       Cd526   2.495       .  S
C524        O532   1.262       .  A
C524       C3301   1.480       .  S
C525        O530   1.269       .  A
C525        O528   1.265       .  A
C525       C3665   1.487       .  S
Cd526       O533   2.401       .  S
Cd526       O532   2.398       .  S
Cd526       O531   2.447       .  S
Cd526       O527   2.478       .  S
Cd526       O530   2.493       .  S
Cd526       O528   2.424       .  S
C529        O533   1.265       .  A
C529       C3284   1.481       .  S
O534        C537   1.269       .  A
O534       Cd539   2.494       .  S
C535        O544   1.264       .  A
C535        O540   1.269       .  A
C535       C4351   1.471       .  S
O536        C542   1.268       .  A
O536       Cd539   2.484       .  S
C537        O545   1.264       .  A
C537       C3287   1.479       .  S
C538        O543   1.266       .  A
C538        O541   1.268       .  A
C538       C3256   1.490       .  S
Cd539       O546   2.382       .  S
Cd539       O545   2.415       .  S
Cd539       O544   2.438       .  S
Cd539       O540   2.482       .  S
Cd539       O543   2.471       .  S
Cd539       O541   2.453       .  S
C542        O546   1.263       .  A
C542       C3270   1.474       .  S
O547        C550   1.270       .  A
O547       Cd552   2.471       .  S
C548        O557   1.261       .  A
C548        O553   1.271       .  A
C548       C3228   1.489       .  S
O549        C555   1.271       .  A
O549       Cd552   2.500       .  S
C550        O558   1.267       .  A
C550       C3200   1.487       .  S
C551        O556   1.269       .  A
C551        O554   1.267       .  A
C551       C3217   1.481       .  S
Cd552       O559   2.399       .  S
Cd552       O558   2.425       .  S
Cd552       O557   2.389       .  S
Cd552       O553   2.524       .  S
Cd552       O556   2.479       .  S
Cd552       O554   2.452       .  S
C555        O559   1.264       .  A
C555       C3245   1.488       .  S
O560        C563   1.270       .  A
O560       Cd565   2.513       .  S
C561        O570   1.265       .  A
C561        O566   1.271       .  A
C561       C4225   1.487       .  S
O562        C568   1.267       .  A
O562       Cd565   2.466       .  S
C563        O571   1.265       .  A
C563       C3231   1.491       .  S
C564        O569   1.271       .  A
C564        O567   1.264       .  A
C564       C3186   1.479       .  S
Cd565       O572   2.467       .  S
Cd565       O571   2.397       .  S
Cd565       O570   2.400       .  S
Cd565       O566   2.501       .  S
Cd565       O569   2.495       .  S
Cd565       O567   2.395       .  S
C568        O572   1.268       .  A
C568       C3172   1.483       .  S
O573        C576   1.272       .  A
O573       Cd578   2.514       .  S
C574        O583   1.268       .  A
C574        O579   1.269       .  A
C574       C3130   1.492       .  S
O575        C581   1.272       .  A
O575       Cd578   2.504       .  S
C576        O584   1.262       .  A
C576       C3158   1.481       .  S
C577        O582   1.269       .  A
C577        O580   1.266       .  A
C577       C3175   1.479   1_455  S
Cd578       O585   2.412       .  S
Cd578       O584   2.399       .  S
Cd578       O583   2.464       .  S
Cd578       O579   2.504       .  S
Cd578       O582   2.479       .  S
Cd578       O580   2.458       .  S
C581        O585   1.265       .  A
C581       C3144   1.487       .  S
O586        C589   1.268       .  A
O586       Cd591   2.481       .  S
C587        O596   1.266       .  A
C587        O592   1.269       .  A
C587       C3147   1.490       .  S
O588        C594   1.267       .  A
O588       Cd591   2.476       .  S
C589        O597   1.263       .  A
C589       C3088   1.477       .  S
C590        O595   1.269       .  A
C590        O593   1.263       .  A
C590       C3116   1.471       .  S
Cd591       O598   2.436       .  S
Cd591       O597   2.425       .  S
Cd591       O596   2.424       .  S
Cd591       O592   2.500       .  S
Cd591       O595   2.489       .  S
Cd591       O593   2.399       .  S
C594        O598   1.265       .  A
C594       C3102   1.473       .  S
O599        C602   1.269       .  A
O599       Cd604   2.475       .  S
C600        O609   1.267       .  A
C600        O605   1.267       .  A
C600       C3203   1.487       .  S
O601        C607   1.271       .  A
O601       Cd604   2.521       .  S
C602        O610   1.264       .  A
C602       C3074   1.472       .  S
C603        O608   1.272       .  A
C603        O606   1.263       .  A
C603       C4407   1.480       .  S
Cd604       O611   2.429       .  S
Cd604       O610   2.359       .  S
Cd604       O609   2.452       .  S
Cd604       O605   2.451       .  S
Cd604       O608   2.511       .  S
Cd604       O606   2.414       .  S
C607        O611   1.263       .  A
C607       C3060   1.489       .  S
O612        C615   1.267       .  A
O612       Cd617   2.492       .  S
C613        O622   1.264       .  A
C613        O618   1.270       .  A
C613       C3046   1.473       .  S
O614        C620   1.270       .  A
O614       Cd617   2.500       .  S
C615        O623   1.267       .  A
C615       C3483   1.492       .  S
C616        O621   1.269       .  A
C616        O619   1.263       .  A
C616       C3063   1.492       .  S
Cd617       O624   2.457       .  S
Cd617       O623   2.464       .  S
Cd617       O622   2.408       .  S
Cd617       O618   2.484       .  S
Cd617       O621   2.527       .  S
Cd617       O619   2.431       .  S
C620        O624   1.266       .  A
C620       C3032   1.489       .  S
O625        C628   1.272       .  A
O625       Cd630   2.505       .  S
C626        O635   1.261       .  A
C626        O631   1.272       .  A
C626       C3004   1.493       .  S
O627        C633   1.272       .  A
O627       Cd630   2.485       .  S
C628        O636   1.266       .  A
C628       C2993   1.494       .  S
C629        O634   1.268       .  A
C629        O632   1.268       .  A
C629       C3035   1.488   1_455  S
Cd630       O637   2.395       .  S
Cd630       O636   2.430       .  S
Cd630       O635   2.396       .  S
Cd630       O631   2.529       .  S
Cd630       O634   2.487       .  S
Cd630       O632   2.470       .  S
C633        O637   1.263       .  A
C633       C3021   1.479       .  S
O638        C641   1.270       .  A
O638       Cd643   2.492       .  S
C639        O648   1.265       .  A
C639        O644   1.269       .  A
C639       C3007   1.493       .  S
O640        C646   1.268       .  A
O640       Cd643   2.508       .  S
C641        O649   1.265       .  A
C641       C3105   1.473       .  S
C642        O647   1.267       .  A
C642        O645   1.266       .  A
C642       C2962   1.480       .  S
Cd643       O650   2.421       .  S
Cd643       O649   2.421       .  S
Cd643       O648   2.415       .  S
Cd643       O644   2.515       .  S
Cd643       O647   2.494       .  S
Cd643       O645   2.454       .  S
C646        O650   1.262       .  A
C646       C2976   1.476       .  S
O651        C654   1.271       .  A
O651       Cd656   2.475       .  S
C652        O661   1.266       .  A
C652        O657   1.268       .  A
C652       C4309   1.479       .  S
O653        C659   1.271       .  A
O653       Cd656   2.518       .  S
C654        O662   1.265       .  A
C654       C2948   1.474       .  S
C655        O660   1.270       .  A
C655        O658   1.266       .  A
C655       C2920   1.492       .  S
Cd656       O663   2.431       .  S
Cd656       O662   2.369       .  S
Cd656       O661   2.425       .  S
Cd656       O657   2.477       .  S
Cd656       O660   2.493       .  S
Cd656       O658   2.434       .  S
C659        O663   1.263       .  A
C659       C2934   1.482       .  S
O664        C667   1.270       .  A
O664       Cd669   2.498       .  S
C665        O674   1.264       .  A
C665        O670   1.266       .  A
C665       C3329   1.487       .  S
O666        C672   1.268       .  A
O666       Cd669   2.506       .  S
C667        O675   1.266       .  A
C667       C2937   1.481       .  S
C668        O673   1.269       .  A
C668        O671   1.267       .  A
C668       C2990   1.496       .  S
Cd669       O676   2.399       .  S
Cd669       O675   2.444       .  S
Cd669       O674   2.469       .  S
Cd669       O670   2.496       .  S
Cd669       O673   2.492       .  S
Cd669       O671   2.461       .  S
C672        O676   1.260       .  A
C672       C2906   1.471       .  S
O677        C680   1.268       .  A
O677       Cd682   2.494       .  S
C678        O687   1.268       .  A
C678        O683   1.265       .  A
C678       C4659   1.488       .  S
O679        C685   1.270       .  A
O679       Cd682   2.520       .  S
C680        O688   1.262       .  A
C680       C2892   1.468       .  S
C681        O686   1.269       .  A
C681        O684   1.264       .  A
C681       C3214   1.481       .  S
Cd682       O689   2.426       .  S
Cd682       O688   2.394       .  S
Cd682       O687   2.470       .  S
Cd682       O683   2.465       .  S
Cd682       O686   2.491       .  S
Cd682       O684   2.452       .  S
C685        O689   1.265       .  A
C685       C2881   1.496       .  S
O690        C693   1.265       .  A
O690       Cd695   2.460       .  S
C691        O700   1.263       .  A
C691        O696   1.267       .  A
C691       C2864   1.454       .  S
O692        C698   1.271       .  A
O692       Cd695   2.520       .  S
C693        O701   1.269       .  A
C693       C2850   1.474       .  S
C694        O699   1.272       .  A
C694        O697   1.262       .  A
C694       C2878   1.496       .  S
Cd695       O702   2.446       .  S
Cd695       O701   2.471       .  S
Cd695       O700   2.385       .  S
Cd695       O696   2.460       .  S
Cd695       O699   2.530       .  S
Cd695       O697   2.424       .  S
C698        O702   1.264       .  A
C698       C2836   1.496       .  S
O703        C706   1.270       .  A
O703       Cd708   2.474       .  S
C704        O713   1.268       .  A
C704        O709   1.267       .  A
C704       C3903   1.490       .  S
O705        C711   1.271       .  A
O705       Cd708   2.514       .  S
C706        O714   1.264       .  A
C706       C2822   1.469       .  S
C707        O712   1.271       .  A
C707        O710   1.264       .  A
C707       C2808   1.498       .  S
Cd708       O715   2.441       .  S
Cd708       O714   2.383       .  S
Cd708       O713   2.447       .  S
Cd708       O709   2.482       .  S
Cd708       O712   2.529       .  S
Cd708       O710   2.424       .  S
C711        O715   1.265       .  A
C711       C2794   1.495       .  S
O716        C719   1.269       .  A
O716       Cd721   2.490       .  S
C717        O726   1.268       .  A
C717        O722   1.267       .  A
C717       C3091   1.477       .  S
O718        C724   1.271       .  A
O718       Cd721   2.516       .  S
C719        O727   1.262       .  A
C719       C2780   1.474       .  S
C720        O725   1.271       .  A
C720        O723   1.262       .  A
C720       C2811   1.497       .  S
Cd721       O728   2.423       .  S
Cd721       O727   2.390       .  S
Cd721       O726   2.447       .  S
Cd721       O722   2.452       .  S
Cd721       O725   2.529       .  S
Cd721       O723   2.427       .  S
C724        O728   1.263       .  A
C724       C4785   1.481       .  S
O729        C732   1.271       .  A
O729       Cd734   2.503       .  S
C730        O739   1.265       .  A
C730        O735   1.270       .  A
C730       C2752   1.489       .  S
O731        C737   1.268       .  A
O731       Cd734   2.483       .  S
C732        O740   1.265       .  A
C732       C2724   1.493       .  S
C733        O738   1.269       .  A
C733        O736   1.264       .  A
C733       C2766   1.480       .  S
Cd734       O741   2.442       .  S
Cd734       O740   2.420       .  S
Cd734       O739   2.420       .  S
Cd734       O735   2.514       .  S
Cd734       O738   2.486       .  S
Cd734       O736   2.389       .  S
C737        O741   1.265       .  A
C737       C2738   1.489       .  S
O742        C745   1.271       .  A
O742       Cd747   2.496       .  S
C743        O752   1.264       .  A
C743        O748   1.272       .  A
C743       C2710   1.488       .  S
O744        C750   1.269       .  A
O744       Cd747   2.474       .  S
C745        O753   1.267       .  A
C745       C2797   1.493       .  S
C746        O751   1.272       .  A
C746        O749   1.264       .  A
C746       C2755   1.486       .  S
Cd747       O754   2.460       .  S
Cd747       O753   2.452       .  S
Cd747       O752   2.386       .  S
Cd747       O748   2.512       .  S
Cd747       O751   2.514       .  S
Cd747       O749   2.406       .  S
C750        O754   1.266       .  A
C750       C2696   1.474       .  S
O755        C758   1.273       .  A
O755       Cd760   2.504       .  S
C756        O765   1.262       .  A
C756        O761   1.274       .  A
C756       C2668   1.489       .  S
O757        C763   1.273       .  A
O757       Cd760   2.496       .  S
C758        O766   1.265       .  A
C758       C2654   1.496       .  S
C759        O764   1.270       .  A
C759        O762   1.268       .  A
C759       C4211   1.492       .  S
Cd760       O767   2.413       .  S
Cd760       O766   2.431       .  S
Cd760       O765   2.384       .  S
Cd760       O761   2.528       .  S
Cd760       O764   2.492       .  S
Cd760       O762   2.481       .  S
C763        O767   1.264       .  A
C763       C2682   1.479       .  S
O768        C771   1.270       .  A
O768       Cd773   2.491       .  S
C769        O778   1.266       .  A
C769        O774   1.270       .  A
C769       C2671   1.490       .  S
O770        C776   1.270       .  A
O770       Cd773   2.487       .  S
C771        O779   1.265       .  A
C771       C2612   1.486       .  S
C772        O777   1.268       .  A
C772        O775   1.269       .  A
C772       C2626   1.488       .  S
Cd773       O780   2.379       .  S
Cd773       O779   2.403       .  S
Cd773       O778   2.408       .  S
Cd773       O774   2.503       .  S
Cd773       O777   2.469       .  S
Cd773       O775   2.444       .  S
C776        O780   1.261       .  A
C776       C2640   1.473       .  S
O781        C784   1.272       .  A
O781       Cd786   2.476       .  S
C782        O791   1.265       .  A
C782        O787   1.273       .  A
C782       C2587   1.483       .  S
O783        C789   1.271       .  A
O783       Cd786   2.482       .  S
C784        O792   1.266       .  A
C784       C3735   1.473       .  S
C785        O790   1.273       .  A
C785        O788   1.265       .  A
C785       C2598   1.475       .  S
Cd786       O793   2.404       .  S
Cd786       O792   2.396       .  S
Cd786       O791   2.404       .  S
Cd786       O787   2.495       .  S
Cd786       O790   2.474       .  S
Cd786       O788   2.395       .  S
C789        O793   1.266       .  A
C789       C2615   1.481       .  S
O794        C797   1.265       .  A
O794       Cd799   2.457       .  S
C795        O804   1.268       .  A
C795        O800   1.264       .  A
C795       C2556   1.481       .  S
O796        C802   1.271       .  A
O796       Cd799   2.511       .  S
C797        O805   1.263       .  A
C797       C2570   1.458       .  S
C798        O803   1.268       .  A
C798        O801   1.265       .  A
C798       C3861   1.494       .  S
Cd799       O806   2.417       .  S
Cd799       O805   2.388       .  S
Cd799       O804   2.442       .  S
Cd799       O800   2.455       .  S
Cd799       O803   2.500       .  S
Cd799       O801   2.443       .  S
C802        O806   1.264       .  A
C802       C2584   1.487       .  S
O807        C810   1.266       .  A
O807       Cd812   2.483       .  S
C808        O817   1.268       .  A
C808        O813   1.264       .  A
C808       C2699   1.473       .  S
O809        C815   1.270       .  A
O809       Cd812   2.496       .  S
C810        O818   1.262       .  A
C810       C2545   1.465       .  S
C811        O816   1.267       .  A
C811        O814   1.264       .  A
C811       C2528   1.484       .  S
Cd812       O819   2.413       .  S
Cd812       O818   2.384       .  S
Cd812       O817   2.484       .  S
Cd812       O813   2.435       .  S
Cd812       O816   2.505       .  S
Cd812       O814   2.447       .  S
C815        O819   1.263       .  A
C815       C2559   1.482       .  S
O820        C823   1.270       .  A
O820       Cd825   2.494       .  S
C821        O830   1.263       .  A
C821        O826   1.270       .  A
C821       C2531   1.477       .  S
O822        C828   1.271       .  A
O822       Cd825   2.479       .  S
C823        O831   1.264       .  A
C823       C4519   1.485       .  S
C824        O829   1.266       .  A
C824        O827   1.267       .  A
C824       C4827   1.487       .  S
Cd825       O832   2.405       .  S
Cd825       O831   2.421       .  S
Cd825       O830   2.425       .  S
Cd825       O826   2.508       .  S
Cd825       O829   2.476       .  S
Cd825       O827   2.452       .  S
C828        O832   1.264       .  A
C828       C2514   1.476       .  S
O833        C836   1.269       .  A
O833       Cd838   2.480       .  S
C834        O843   1.267       .  A
C834        O839   1.267       .  A
C834       C2727   1.492       .  S
O835        C841   1.271       .  A
O835       Cd838   2.509       .  S
C836        O844   1.263       .  A
C836       C2500   1.470       .  S
C837        O842   1.271       .  A
C837        O840   1.264       .  A
C837       C2486   1.491       .  S
Cd838       O845   2.442       .  S
Cd838       O844   2.396       .  S
Cd838       O843   2.457       .  S
Cd838       O839   2.482       .  S
Cd838       O842   2.526       .  S
Cd838       O840   2.431       .  S
C841        O845   1.264       .  A
C841       C2472   1.492       .  S
O846        C849   1.273       .  A
O846       Cd851   2.479       .  S
C847        O856   1.267       .  A
C847        O852   1.270       .  A
C847       C2444   1.496       .  S
O848        C854   1.274       .  A
O848       Cd851   2.527       .  S
C849        O857   1.264       .  A
C849       C2458   1.474       .  S
C850        O855   1.274       .  A
C850        O853   1.265       .  A
C850       C2489   1.494       .  S
Cd851       O858   2.441       .  S
Cd851       O857   2.378       .  S
Cd851       O856   2.452       .  S
Cd851       O852   2.496       .  S
Cd851       O855   2.526       .  S
Cd851       O853   2.419       .  S
C854        O858   1.263       .  A
C854       C3133   1.496       .  S
O859        C862   1.267       .  A
O859       Cd864   2.495       .  S
C860        O869   1.268       .  A
C860        O865   1.265       .  A
C860       C3581   1.489       .  S
O861        C867   1.266       .  A
O861       Cd864   2.503       .  S
C862        O870   1.261       .  A
C862       C2433   1.468       .  S
C863        O868   1.269       .  A
C863        O866   1.265       .  A
C863       C2419   1.479       .  S
Cd864       O871   2.460       .  S
Cd864       O870   2.403       .  S
Cd864       O869   2.473       .  S
Cd864       O865   2.472       .  S
Cd864       O868   2.496       .  S
Cd864       O866   2.453       .  S
C867        O871   1.264       .  A
C867       C2402   1.495       .  S
O872        C875   1.271       .  A
O872       Cd877   2.479       .  S
C873        O882   1.267       .  A
C873        O878   1.267       .  A
C873       C2377   1.495       .  S
O874        C880   1.271       .  A
O874       Cd877   2.523       .  S
C875        O883   1.265       .  A
C875       C2388   1.478       .  S
C876        O881   1.272       .  A
C876        O879   1.264       .  A
C876       C2416   1.481       .  S
Cd877       O884   2.436       .  S
Cd877       O883   2.366       .  S
Cd877       O882   2.444       .  S
Cd877       O878   2.501       .  S
Cd877       O881   2.512       .  S
Cd877       O879   2.441       .  S
C880        O884   1.264       .  A
C880       C2360   1.485       .  S
O885        C888   1.270       .  A
O885       Cd890   2.510       .  S
C886        O895   1.263       .  A
C886        O891   1.272       .  A
C886       C2332   1.485       .  S
O887        C893   1.267       .  A
O887       Cd890   2.491       .  S
C888        O896   1.266       .  A
C888       C2447   1.497       .  S
C889        O894   1.270       .  A
C889        O892   1.263       .  A
C889       C2346   1.465       .  S
Cd890       O897   2.467       .  S
Cd890       O896   2.435       .  S
Cd890       O895   2.423       .  S
Cd890       O891   2.525       .  S
Cd890       O894   2.478       .  S
Cd890       O892   2.407       .  S
C893        O897   1.268       .  A
C893       C2657   1.497       .  S
O898        C901   1.270       .  A
O898       Cd903   2.507       .  S
C899        O908   1.265       .  A
C899        O904   1.269       .  A
C899       C3371   1.472       .  S
O900        C906   1.272       .  A
O900       Cd903   2.516       .  S
C901        O909   1.265       .  A
C901       C2335   1.485       .  S
C902        O907   1.270       .  A
C902        O905   1.265       .  A
C902       C2405   1.495       .  S
Cd903       O910   2.406       .  S
Cd903       O909   2.435       .  S
Cd903       O908   2.440       .  S
Cd903       O904   2.491       .  S
Cd903       O907   2.498       .  S
Cd903       O905   2.451       .  S
C906        O910   1.262       .  A
C906       C2321   1.490       .  S
O911        C914   1.273       .  A
O911       Cd916   2.515       .  S
C912        O921   1.265       .  A
C912        O917   1.273       .  A
C912       C3259   1.490       .  S
O913        C919   1.269       .  A
O913       Cd916   2.492       .  S
C914        O922   1.265       .  A
C914       C2290   1.493       .  S
C915        O920   1.274       .  A
C915        O918   1.263       .  A
C915       C2307   1.480       .  S
Cd916       O923   2.428       .  S
Cd916       O922   2.399       .  S
Cd916       O921   2.414       .  S
Cd916       O917   2.488       .  S
Cd916       O920   2.481       .  S
Cd916       O918   2.367       .  S
C919        O923   1.267       .  A
C919       C4463   1.486       .  S
O924        C927   1.272       .  A
O924       Cd929   2.512       .  S
C925        O934   1.266       .  A
C925        O930   1.271       .  A
C925       C2741   1.490       .  S
O926        C932   1.271       .  A
O926       Cd929   2.490       .  S
C927        O935   1.263       .  A
C927       C2293   1.491       .  S
C928        O933   1.272       .  A
C928        O931   1.264       .  A
C928       C2276   1.480       .  S
Cd929       O936   2.436       .  S
Cd929       O935   2.405       .  S
Cd929       O934   2.412       .  S
Cd929       O930   2.497       .  S
Cd929       O933   2.500       .  S
Cd929       O931   2.402       .  S
C932        O936   1.267       .  A
C932       C2262   1.490       .  S
O937        C940   1.271       .  A
O937       Cd942   2.530       .  S
C938        O947   1.267       .  A
C938        O943   1.270       .  A
C938       C2206   1.487       .  S
O939        C945   1.269       .  A
O939       Cd942   2.501       .  S
C940        O948   1.262       .  A
C940       C2234   1.493       .  S
C941        O946   1.268       .  A
C941        O944   1.268       .  A
C941       C2220   1.481       .  S
Cd942       O949   2.394       .  S
Cd942       O948   2.420       .  S
Cd942       O947   2.475       .  S
Cd942       O943   2.494       .  S
Cd942       O946   2.466       .  S
Cd942       O944   2.470       .  S
C945        O949   1.261       .  A
C945       C2248   1.477       .  S
O950        C953   1.267       .  A
O950       Cd955   2.467       .  S
C951        O960   1.266       .  A
C951        O956   1.263       .  A
C951       C3441   1.467       .  S
O952        C958   1.270       .  A
O952       Cd955   2.531       .  S
C953        O961   1.266       .  A
C953       C2192   1.468       .  S
C954        O959   1.270       .  A
C954        O957   1.262       .  A
C954       C2965   1.483       .  S
Cd955       O962   2.419       .  S
Cd955       O961   2.391       .  S
Cd955       O960   2.461       .  S
Cd955       O956   2.452       .  S
Cd955       O959   2.536       .  S
Cd955       O957   2.430       .  S
C958        O962   1.263       .  A
C958       C2237   1.493       .  S
O963        C966   1.269       .  A
O963       Cd968   2.499       .  S
C964        O973   1.265       .  A
C964        O969   1.270       .  A
C964       C2150   1.486       .  S
O965        C971   1.270       .  A
O965       Cd968   2.516       .  S
C966        O974   1.263       .  A
C966       C2164   1.477       .  S
C967        O972   1.271       .  A
C967        O970   1.263       .  A
C967       C2178   1.473       .  S
Cd968       O975   2.473       .  S
Cd968       O974   2.439       .  S
Cd968       O973   2.448       .  S
Cd968       O969   2.523       .  S
Cd968       O972   2.504       .  S
Cd968       O970   2.419       .  S
C971        O975   1.266       .  A
C971       C2839   1.499       .  S
O976        C979   1.269       .  A
O976       Cd981   2.521       .  S
C977        O986   1.265       .  A
C977        O982   1.269       .  A
C977       C4841   1.485       .  S
O978        C984   1.265       .  A
O978       Cd981   2.480       .  S
C979        O987   1.261       .  A
C979       C2167   1.478       .  S
C980        O985   1.269       .  A
C980        O983   1.264       .  A
C980       C2136   1.472       .  S
Cd981       O988   2.476       .  S
Cd981       O987   2.431       .  S
Cd981       O986   2.453       .  S
Cd981       O982   2.489       .  S
Cd981       O985   2.484       .  S
Cd981       O983   2.408       .  S
C984        O988   1.266       .  A
C984       C2122   1.476       .  S
O989        C992   1.273       .  A
O989       Cd994   2.506       .  S
C990        O999   1.262       .  A
C990        O995   1.273       .  A
C990       C2374   1.494       .  S
O991        C997   1.273       .  A
O991       Cd994   2.484       .  S
C992       O1000   1.264       .  A
C992       C2094   1.478       .  S
C993        O998   1.268       .  A
C993        O996   1.266       .  A
C993       C2153   1.481       .  S
Cd994      O1001   2.396       .  S
Cd994      O1000   2.430       .  S
Cd994       O999   2.407       .  S
Cd994       O995   2.526       .  S
Cd994       O998   2.498       .  S
Cd994       O996   2.459       .  S
C997       O1001   1.265       .  A
C997       C2111   1.478       .  S
O1002      C1005   1.267       .  A
O1002     Cd1007   2.492       .  S
C1003      O1012   1.265       .  A
C1003      O1008   1.268       .  A
C1003      C2066   1.479       .  S
O1004      C1010   1.269       .  A
O1004     Cd1007   2.527       .  S
C1005      O1013   1.265       .  A
C1005      C2097   1.478       .  S
C1006      O1011   1.269       .  A
C1006      O1009   1.268       .  A
C1006      C2475   1.492       .  S
Cd1007     O1014   2.411       .  S
Cd1007     O1013   2.460       .  S
Cd1007     O1012   2.458       .  S
Cd1007     O1008   2.482       .  S
Cd1007     O1011   2.491       .  S
Cd1007     O1009   2.463       .  S
C1010      O1014   1.260       .  A
C1010      C2083   1.483       .  S
O1015      C1018   1.268       .  A
O1015     Cd1020   2.467       .  S
C1016      O1025   1.263       .  A
C1016      O1021   1.269       .  A
C1016      C2052   1.480       .  S
O1017      C1023   1.272       .  A
O1017     Cd1020   2.526       .  S
C1018      O1026   1.268       .  A
C1018      C2069   1.482       .  S
C1019      O1024   1.271       .  A
C1019      O1022   1.264       .  A
C1019      C2027   1.487       .  S
Cd1020     O1027   2.457       .  S
Cd1020     O1026   2.466       .  S
Cd1020     O1025   2.371       .  S
Cd1020     O1021   2.489       .  S
Cd1020     O1024   2.504       .  S
Cd1020     O1022   2.459       .  S
C1023      O1027   1.264       .  A
C1023      C2038   1.489       .  S
O1028      C1031   1.270       .  A
O1028     Cd1033   2.515       .  S
C1029      O1038   1.269       .  A
C1029      O1034   1.269       .  A
C1029      C2209   1.490       .  S
O1030      C1036   1.271       .  A
O1030     Cd1033   2.520       .  S
C1031      O1039   1.261       .  A
C1031      C2013   1.484       .  S
C1032      O1037   1.271       .  A
C1032      O1035   1.263       .  A
C1032      C2041   1.489       .  S
Cd1033     O1040   2.489       .  S
Cd1033     O1039   2.403       .  S
Cd1033     O1038   2.495       .  S
Cd1033     O1034   2.489       .  S
Cd1033     O1037   2.539       .  S
Cd1033     O1035   2.469       .  S
C1036      O1040   1.266       .  A
C1036      C1999   1.494   1_455  S
O1041      C1044   1.270       .  A
O1041     Cd1046   2.506       .  S
C1042      O1051   1.263       .  A
C1042      O1047   1.271       .  A
C1042      C3413   1.488       .  S
O1043      C1049   1.268       .  A
O1043     Cd1046   2.484       .  S
C1044      O1052   1.263       .  A
C1044      C1968   1.486       .  S
C1045      O1050   1.268       .  A
C1045      O1048   1.268       .  A
C1045      C3623   1.491       .  S
Cd1046     O1053   2.407       .  S
Cd1046     O1052   2.402       .  S
Cd1046     O1051   2.408       .  S
Cd1046     O1047   2.493       .  S
Cd1046     O1050   2.460       .  S
Cd1046     O1048   2.463       .  S
C1049      O1053   1.262       .  A
C1049      C1985   1.469       .  S
O1054      C1057   1.270       .  A
O1054     Cd1059   2.490       .  S
C1055      O1064   1.268       .  A
C1055      O1060   1.267       .  A
C1055      C2024   1.486       .  S
O1056      C1062   1.270       .  A
O1056     Cd1059   2.527       .  S
C1057      O1065   1.263       .  A
C1057      C1954   1.479       .  S
C1058      O1063   1.270       .  A
C1058      O1061   1.267       .  A
C1058      C2265   1.492       .  S
Cd1059     O1066   2.389       .  S
Cd1059     O1065   2.414       .  S
Cd1059     O1064   2.483       .  S
Cd1059     O1060   2.479       .  S
Cd1059     O1063   2.493       .  S
Cd1059     O1061   2.438       .  S
C1062      O1066   1.262       .  A
C1062      C1971   1.488       .  S
O1067      C1070   1.273       .  A
O1067     Cd1072   2.504       .  S
C1068      O1077   1.269       .  A
C1068      O1073   1.270       .  A
C1068      C3312   1.495       .  S
O1069      C1075   1.273       .  A
O1069     Cd1072   2.524       .  S
C1070      O1078   1.261       .  A
C1070      C1943   1.485       .  S
C1071      O1076   1.271       .  A
C1071      O1074   1.266       .  A
C1071      C3497   1.498       .  S
Cd1072     O1079   2.411       .  S
Cd1072     O1078   2.398       .  S
Cd1072     O1077   2.487       .  S
Cd1072     O1073   2.498       .  S
Cd1072     O1076   2.511       .  S
Cd1072     O1074   2.443       .  S
C1075      O1079   1.264       .  A
C1075      C1926   1.491       .  S
O1080      C1083   1.271       .  A
O1080     Cd1085   2.522       .  S
C1081      O1090   1.263       .  A
C1081      O1086   1.271       .  A
C1081      C2629   1.489       .  S
O1082      C1088   1.268       .  A
O1082     Cd1085   2.492       .  S
C1083      O1091   1.264       .  A
C1083      C1929   1.489       .  S
C1084      O1089   1.266       .  A
C1084      O1087   1.269       .  A
C1084      C1898   1.490       .  S
Cd1085     O1092   2.400       .  S
Cd1085     O1091   2.418       .  S
Cd1085     O1090   2.420       .  S
Cd1085     O1086   2.500       .  S
Cd1085     O1089   2.466       .  S
Cd1085     O1087   2.460       .  S
C1088      O1092   1.264       .  A
C1088      C1912   1.482       .  S
O1093      C1096   1.271       .  A
O1093     Cd1098   2.469       .  S
C1094      O1103   1.265       .  A
C1094      O1099   1.268       .  A
C1094      C4015   1.474       .  S
O1095      C1101   1.272       .  A
O1095     Cd1098   2.496       .  S
C1096      O1104   1.265       .  A
C1096      C1884   1.475       .  S
C1097      O1102   1.272       .  A
C1097      O1100   1.264       .  A
C1097      C1873   1.480       .  S
Cd1098     O1105   2.418       .  S
Cd1098     O1104   2.367       .  S
Cd1098     O1103   2.415       .  S
Cd1098     O1099   2.453       .  S
Cd1098     O1102   2.510       .  S
Cd1098     O1100   2.426       .  S
C1101      O1105   1.263       .  A
C1101      C1901   1.488       .  S
O1106      C1109   1.267       .  A
O1106     Cd1111   2.481       .  S
C1107      O1116   1.262       .  A
C1107      O1112   1.272       .  A
C1107      C1859   1.476       .  S
O1108      C1114   1.271       .  A
O1108     Cd1111   2.506       .  S
C1109      O1117   1.269       .  A
C1109      C1845   1.486       .  S
C1110      O1115   1.272       .  A
C1110      O1113   1.265       .  A
C1110      C1831   1.480       .  S
Cd1111     O1118   2.431       .  S
Cd1111     O1117   2.459       .  S
Cd1111     O1116   2.370       .  S
Cd1111     O1112   2.488       .  S
Cd1111     O1115   2.498       .  S
Cd1111     O1113   2.434       .  S
C1114      O1118   1.264       .  A
C1114      C1870   1.480       .  S
O1119      C1122   1.269       .  A
O1119     Cd1124   2.510       .  S
C1120      O1129   1.262       .  A
C1120      O1125   1.272       .  A
C1120      C1814   1.485       .  S
O1121      C1127   1.269       .  A
O1121     Cd1124   2.496       .  S
C1122      O1130   1.267       .  A
C1122      C1996   1.495       .  S
C1123      O1128   1.270       .  A
C1123      O1126   1.261       .  A
C1123      C1800   1.475       .  S
Cd1124     O1131   2.459       .  S
Cd1124     O1130   2.498       .  S
Cd1124     O1129   2.414       .  S
Cd1124     O1125   2.500       .  S
Cd1124     O1128   2.515       .  S
Cd1124     O1126   2.435       .  S
C1127      O1131   1.269       .  A
C1127      C1842   1.490       .  S
O1132      C1135   1.268       .  A
O1132     Cd1137   2.483       .  S
C1133      O1142   1.262       .  A
C1133      O1138   1.267       .  A
C1133      C1803   1.476       .  S
O1134      C1140   1.266       .  A
O1134     Cd1137   2.474       .  S
C1135      O1143   1.265       .  A
C1135      C2125   1.475       .  S
C1136      O1141   1.267       .  A
C1136      O1139   1.264       .  A
C1136      C1786   1.478       .  S
Cd1137     O1144   2.466       .  S
Cd1137     O1143   2.457       .  S
Cd1137     O1142   2.446       .  S
Cd1137     O1138   2.507       .  S
Cd1137     O1141   2.491       .  S
Cd1137     O1139   2.413       .  S
C1140      O1144   1.265       .  A
C1140      C3525   1.490       .  S
O1145      C1148   1.268       .  A
O1145     Cd1150   2.483       .  S
C1146      O1155   1.262       .  A
C1146      O1151   1.272       .  A
C1146      C1772   1.486       .  S
O1147      C1153   1.271       .  A
O1147     Cd1150   2.498       .  S
C1148      O1156   1.266       .  A
C1148      C1828   1.478       .  S
C1149      O1154   1.271       .  A
C1149      O1152   1.264       .  A
C1149      C1758   1.482       .  S
Cd1150     O1157   2.436       .  S
Cd1150     O1156   2.465       .  S
Cd1150     O1155   2.391       .  S
Cd1150     O1151   2.497       .  S
Cd1150     O1154   2.513       .  S
Cd1150     O1152   2.416       .  S
C1153      O1157   1.266       .  A
C1153      C1744   1.489       .  S
O1158      C1161   1.265       .  A
O1158     Cd1163   2.452       .  S
C1159      O1168   1.262       .  A
C1159      O1164   1.267       .  A
C1159      C1730   1.459       .  S
O1160      C1166   1.270       .  A
O1160     Cd1163   2.497       .  S
C1161      O1169   1.269       .  A
C1161      C1716   1.484       .  S
C1162      O1167   1.270       .  A
C1162      O1165   1.264       .  A
C1162      C1761   1.480       .  S
Cd1163     O1170   2.406       .  S
Cd1163     O1169   2.447       .  S
Cd1163     O1168   2.402       .  S
Cd1163     O1164   2.459       .  S
Cd1163     O1167   2.501       .  S
Cd1163     O1165   2.422       .  S
C1166      O1170   1.264       .  A
C1166      C4071   1.484       .  S
O1171      C1174   1.270       .  A
O1171     Cd1176   2.495       .  S
C1172      O1181   1.266       .  A
C1172      O1177   1.271       .  A
C1172      C1688   1.484       .  S
O1173      C1179   1.272       .  A
O1173     Cd1176   2.494       .  S
C1174      O1182   1.264       .  A
C1174      C2853   1.473       .  S
C1175      O1180   1.269       .  A
C1175      O1178   1.267       .  A
C1175      C1674   1.483       .  S
Cd1176     O1183   2.389       .  S
Cd1176     O1182   2.422       .  S
Cd1176     O1181   2.430       .  S
Cd1176     O1177   2.498       .  S
Cd1176     O1180   2.486       .  S
Cd1176     O1178   2.446       .  S
C1179      O1183   1.263       .  A
C1179      C1705   1.477       .  S
O1184      C1187   1.272       .  A
O1184     Cd1189   2.499       .  S
C1185      O1194   1.265       .  A
C1185      O1190   1.272       .  A
C1185      C1691   1.482       .  S
O1186      C1192   1.272       .  A
O1186     Cd1189   2.478       .  S
C1187      O1195   1.262       .  A
C1187      C1719   1.487       .  S
C1188      O1193   1.267       .  A
C1188      O1191   1.267       .  A
C1188      C4253   1.487       .  S
Cd1189     O1196   2.389       .  S
Cd1189     O1195   2.399       .  S
Cd1189     O1194   2.416       .  S
Cd1189     O1190   2.507       .  S
Cd1189     O1193   2.470       .  S
Cd1189     O1191   2.443       .  S
C1192      O1196   1.264       .  A
C1192      C1660   1.477       .  S
O1197      C1200   1.270       .  A
O1197     Cd1202   2.482       .  S
C1198      O1207   1.264       .  A
C1198      O1203   1.272       .  A
C1198      C1632   1.489       .  S
O1199      C1205   1.271       .  A
O1199     Cd1202   2.490       .  S
C1200      O1208   1.264       .  A
C1200      C1618   1.474       .  S
C1201      O1206   1.269       .  A
C1201      O1204   1.266       .  A
C1201      C2923   1.490       .  S
Cd1202     O1209   2.383       .  S
Cd1202     O1208   2.431       .  S
Cd1202     O1207   2.411       .  S
Cd1202     O1203   2.510       .  S
Cd1202     O1206   2.482       .  S
Cd1202     O1204   2.450       .  S
C1205      O1209   1.264       .  A
C1205      C1649   1.474       .  S
O1210      C1213   1.271       .  A
O1210     Cd1215   2.508       .  S
C1211      O1220   1.264       .  A
C1211      O1216   1.269       .  A
C1211      C2223   1.479       .  S
O1212      C1218   1.269       .  A
O1212     Cd1215   2.479       .  S
C1213      O1221   1.266       .  A
C1213      C1635   1.492       .  S
C1214      O1219   1.269       .  A
C1214      O1217   1.262       .  A
C1214      C1604   1.479       .  S
Cd1215     O1222   2.459       .  S
Cd1215     O1221   2.421       .  S
Cd1215     O1220   2.448       .  S
Cd1215     O1216   2.493       .  S
Cd1215     O1219   2.498       .  S
Cd1215     O1217   2.391       .  S
C1218      O1222   1.268       .  A
C1218      C1747   1.490   1_455  S
O1223      C1226   1.269       .  A
O1223     Cd1228   2.509       .  S
C1224      O1233   1.265       .  A
C1224      O1229   1.269       .  A
C1224      C3777   1.471       .  S
O1225      C1231   1.270       .  A
O1225     Cd1228   2.484       .  S
C1226      O1234   1.264       .  A
C1226      C1579   1.488       .  S
C1227      O1232   1.266       .  A
C1227      O1230   1.267       .  A
C1227      C1621   1.477       .  S
Cd1228     O1235   2.388       .  S
Cd1228     O1234   2.407       .  S
Cd1228     O1233   2.432       .  S
Cd1228     O1229   2.457       .  S
Cd1228     O1232   2.460       .  S
Cd1228     O1230   2.455       .  S
C1231      O1235   1.263       .  A
C1231      C1590   1.473       .  S
O1236      C1239   1.273       .  A
O1236     Cd1241   2.499       .  S
C1237      O1246   1.265       .  A
C1237      O1242   1.274       .  A
C1237      C1576   1.489       .  S
O1238      C1244   1.271       .  A
O1238     Cd1241   2.491       .  S
C1239      O1247   1.266       .  A
C1239      C1677   1.485   1_455  S
C1240      O1245   1.275       .  A
C1240      O1243   1.261       .  A
C1240      C1562   1.485       .  S
Cd1241     O1248   2.450       .  S
Cd1241     O1247   2.423       .  S
Cd1241     O1246   2.389       .  S
Cd1241     O1242   2.503       .  S
Cd1241     O1245   2.507       .  S
Cd1241     O1243   2.386       .  S
C1244      O1248   1.268       .  A
C1244      C2363   1.483       .  S
O1249      C1252   1.263       .  A
O1249     Cd1254   2.454       .  S
C1250      O1259   1.263       .  A
C1250      O1255   1.263       .  A
C1250      C3511   1.474       .  S
O1251      C1257   1.267       .  A
O1251     Cd1254   2.457       .  S
C1252      O1260   1.264       .  A
C1252      C4449   1.472       .  S
C1253      O1258   1.264       .  A
C1253      O1256   1.263       .  A
C1253      C4547   1.464       .  S
Cd1254     O1261   2.394       .  S
Cd1254     O1260   2.425       .  S
Cd1254     O1259   2.458       .  S
Cd1254     O1255   2.473       .  S
Cd1254     O1258   2.487       .  S
Cd1254     O1256   2.392       .  S
C1257      O1261   1.266       .  A
C1257      C3077   1.467       .  S
O1262      C1265   1.263       .  A
O1262     Cd1267   2.457       .  S
C1263      O1272   1.265       .  A
C1263      O1268   1.266       .  A
C1263      C3427   1.471       .  S
O1264      C1270   1.267       .  A
O1264     Cd1267   2.473       .  S
C1265      O1273   1.265       .  A
C1265      C4715   1.470       .  S
C1266      O1271   1.266       .  A
C1266      O1269   1.263       .  A
C1266      C4813   1.475       .  S
Cd1267     O1274   2.406       .  S
Cd1267     O1273   2.437       .  S
Cd1267     O1272   2.422       .  S
Cd1267     O1268   2.455       .  S
Cd1267     O1271   2.482       .  S
Cd1267     O1269   2.398       .  S
C1270      O1274   1.264       .  A
C1270      C4197   1.473       .  S
O1275      C1278   1.261       .  A
O1275     Cd1280   2.451       .  S
C1276      O1285   1.267       .  A
C1276      O1281   1.265       .  A
C1276      C4337   1.460       .  S
O1277      C1283   1.266       .  A
O1277     Cd1280   2.477       .  S
C1278      O1286   1.262       .  A
C1278      C3399   1.458       .  S
C1279      O1284   1.266       .  A
C1279      O1282   1.260       .  A
C1279      C3273   1.478       .  S
Cd1280     O1287   2.422       .  S
Cd1280     O1286   2.429       .  S
Cd1280     O1285   2.442       .  S
Cd1280     O1281   2.429       .  S
Cd1280     O1284   2.479       .  S
Cd1280     O1282   2.419       .  S
C1283      O1287   1.264       .  A
C1283      C2909   1.470       .  S
O1288      C1291   1.267       .  A
O1288     Cd1293   2.487       .  S
C1289      O1298   1.265       .  A
C1289      O1294   1.268       .  A
C1289      C3189   1.477       .  S
O1290      C1296   1.263       .  A
O1290     Cd1293   2.460       .  S
C1291      O1299   1.263       .  A
C1291      C1702   1.478       .  S
C1292      O1297   1.263       .  A
C1292      O1295   1.264       .  A
C1292      C2895   1.470       .  S
Cd1293     O1300   2.434       .  S
Cd1293     O1299   2.421       .  S
Cd1293     O1298   2.418       .  S
Cd1293     O1294   2.481       .  S
Cd1293     O1297   2.464       .  S
Cd1293     O1295   2.428       .  S
C1296      O1300   1.263       .  A
C1296      C4295   1.464       .  S
O1301      C1304   1.267       .  A
O1301     Cd1306   2.495       .  S
C1302      O1311   1.264       .  A
C1302      O1307   1.269       .  A
C1302      C3693   1.478       .  S
O1303      C1309   1.266       .  A
O1303     Cd1306   2.473       .  S
C1304      O1312   1.261       .  A
C1304      C3763   1.482       .  S
C1305      O1310   1.266       .  A
C1305      O1308   1.263       .  A
C1305      C3998   1.470       .  S
Cd1306     O1313   2.453       .  S
Cd1306     O1312   2.398       .  S
Cd1306     O1311   2.394       .  S
Cd1306     O1307   2.479       .  S
Cd1306     O1310   2.478       .  S
Cd1306     O1308   2.443       .  S
C1309      O1313   1.264       .  A
C1309      C3567   1.470       .  S
O1314      C1317   1.264       .  A
O1314     Cd1319   2.473       .  S
C1315      O1324   1.264       .  A
C1315      O1320   1.265       .  A
C1315      C2503   1.469       .  S
O1316      C1322   1.267       .  A
O1316     Cd1319   2.463       .  S
C1317      O1325   1.263       .  A
C1317      C2430   1.470       .  S
C1318      O1323   1.262       .  A
C1318      O1321   1.262       .  A
C1318      C2349   1.469       .  S
Cd1319     O1326   2.437       .  S
Cd1319     O1325   2.424       .  S
Cd1319     O1324   2.423       .  S
Cd1319     O1320   2.468       .  S
Cd1319     O1323   2.466       .  S
Cd1319     O1321   2.452       .  S
C1322      O1326   1.267       .  A
C1322      C2108   1.479       .  S
O1327      C1330   1.266       .  A
O1327     Cd1332   2.474       .  S
C1328      O1337   1.264       .  A
C1328      O1333   1.266       .  A
C1328      C2010   1.482       .  S
O1329      C1335   1.267       .  A
O1329     Cd1332   2.501       .  S
C1330      O1338   1.266       .  A
C1330      C2181   1.475       .  S
C1331      O1336   1.268   1_455  A
C1331      O1334   1.266       .  A
C1331      C2080   1.488       .  S
Cd1332     O1339   2.425       .  S
Cd1332     O1338   2.452       .  S
Cd1332     O1337   2.434       .  S
Cd1332     O1333   2.495       .  S
Cd1332     O1336   2.503       .  S
Cd1332     O1334   2.433   1_655  S
C1335      O1339   1.261       .  A
C1335      C1789   1.482       .  S
O1340      C1343   1.266       .  A
O1340     Cd1345   2.472       .  S
C1341      O1350   1.265       .  A
C1341      O1346   1.266       .  A
C1341      C3018   1.483       .  S
O1342      C1348   1.267       .  A
O1342     Cd1345   2.463       .  S
C1343      O1351   1.262       .  A
C1343      C1607   1.478       .  S
C1344      O1349   1.265       .  A
C1344      O1347   1.262       .  A
C1344      C2195   1.469       .  S
Cd1345     O1352   2.392       .  S
Cd1345     O1351   2.418       .  S
Cd1345     O1350   2.424   1_545  S
Cd1345     O1346   2.472   1_545  S
Cd1345     O1349   2.473   1_545  S
Cd1345     O1347   2.392   1_545  S
C1348      O1352   1.265       .  A
C1348      C2951   1.471       .  S
O1353      C1356   1.265       .  A
O1353     Cd1358   2.457       .  S
C1354      O1363   1.264       .  A
C1354      O1359   1.265       .  A
C1354      C1856   1.471       .  S
O1355      C1361   1.264       .  A
O1355     Cd1358   2.442       .  S
C1356      O1364   1.265       .  A
C1356      C4127   1.474       .  S
C1357      O1362   1.262       .  A
C1357      O1360   1.264       .  A
C1357      C4057   1.458       .  S
Cd1358     O1365   2.419       .  S
Cd1358     O1364   2.415       .  S
Cd1358     O1363   2.409   1_556  S
Cd1358     O1359   2.462   1_556  S
Cd1358     O1362   2.445   1_556  S
Cd1358     O1360   2.440   1_556  S
C1361      O1365   1.264       .  A
C1361      C1733   1.457       .  S
O1366      C1369   1.263       .  A
O1366     Cd1371   2.464   1_565  S
C1367      O1376   1.265       .  A
C1367      O1372   1.267       .  A
C1367      C4085   1.475       .  S
O1368      C1374   1.268       .  A
O1368     Cd1371   2.492       .  S
C1369      O1377   1.265       .  A
C1369      C4421   1.475       .  S
C1370      O1375   1.268       .  A
C1370      O1373   1.261       .  A
C1370      C4169   1.482       .  S
Cd1371     O1378   2.407       .  S
Cd1371     O1377   2.417   1_545  S
Cd1371     O1376   2.406       .  S
Cd1371     O1372   2.457       .  S
Cd1371     O1375   2.491   1_545  S
Cd1371     O1373   2.406   1_545  S
C1374      O1378   1.263       .  A
C1374      C4645   1.477       .  S
O1379      C1382   1.260   1_554  A
O1379     Cd1384   2.440       .  S
C1380      O1389   1.264       .  A
C1380      O1385   1.265       .  A
C1380      C4911   1.463       .  S
O1381      C1387   1.268       .  A
O1381     Cd1384   2.488       .  S
C1382      O1390   1.263       .  A
C1382      C2867   1.455       .  S
C1383      O1388   1.265       .  A
C1383      O1386   1.263       .  A
C1383      C4687   1.469       .  S
Cd1384     O1391   2.411       .  S
Cd1384     O1390   2.434   1_554  S
Cd1384     O1389   2.411       .  S
Cd1384     O1385   2.449       .  S
Cd1384     O1388   2.474   1_554  S
Cd1384     O1386   2.434   1_554  S
C1387      O1391   1.262       .  A
C1387      C2139   1.476       .  S
O1392      C1395   1.265       .  A
O1392     Cd1397   2.471       .  S
C1393      O1402   1.265       .  A
C1393      O1398   1.266       .  A
C1393      C3161   1.480   1_655  S
O1394      C1400   1.267   1_655  A
O1394     Cd1397   2.485       .  S
C1395      O1403   1.264       .  A
C1395      C3049   1.478       .  S
C1396      O1401   1.266       .  A
C1396      O1399   1.261       .  A
C1396      C3242   1.483       .  S
Cd1397     O1404   2.435   1_655  S
Cd1397     O1403   2.435       .  S
Cd1397     O1402   2.447       .  S
Cd1397     O1398   2.486       .  S
Cd1397     O1401   2.504       .  S
Cd1397     O1399   2.426       .  S
C1400      O1404   1.265       .  A
C1400      C2979   1.476       .  S
O1405      C1408   1.267       .  A
O1405     Cd1410   2.498       .  S
C1406      O1415   1.263       .  A
C1406      O1411   1.268       .  A
C1406      C4491   1.482       .  S
O1407      C1413   1.266       .  A
O1407     Cd1410   2.471       .  S
C1408      O1416   1.263       .  A
C1408      C2713   1.484       .  S
C1409      O1414   1.267       .  A
C1409      O1412   1.265       .  A
C1409      C2279   1.483       .  S
Cd1410     O1417   2.443       .  S
Cd1410     O1416   2.428       .  S
Cd1410     O1415   2.419       .  S
Cd1410     O1411   2.490       .  S
Cd1410     O1414   2.486       .  S
Cd1410     O1412   2.431       .  S
C1413      O1417   1.265       .  A
C1413      C2517   1.478       .  S
O1418      C1421   1.266       .  A
O1418     Cd1423   2.473       .  S
C1419      O1428   1.265       .  A
C1419      O1424   1.267   1_455  A
C1419      C1646   1.476       .  S
O1420      C1426   1.265       .  A
O1420     Cd1423   2.488       .  S
C1421      O1429   1.265       .  A
C1421      C1663   1.478       .  S
C1422      O1427   1.266       .  A
C1422      O1425   1.264       .  A
C1422      C1775   1.486       .  S
Cd1423     O1430   2.425       .  S
Cd1423     O1429   2.429       .  S
Cd1423     O1428   2.414   1_655  S
Cd1423     O1424   2.473       .  S
Cd1423     O1427   2.490       .  S
Cd1423     O1425   2.421       .  S
C1426      O1430   1.265       .  A
C1426      C1565   1.485   1_655  S
O1431      C1434   1.265       .  A
O1431     Cd1436   2.447   1_565  S
C1432      O1441   1.264       .  A
C1432      O1437   1.262       .  A
C1432      C3634   1.462       .  S
O1433      C1439   1.266       .  A
O1433     Cd1436   2.490   1_565  S
C1434      O1442   1.268       .  A
C1434      C2304   1.477       .  S
C1435      O1440   1.267       .  A
C1435      O1438   1.264       .  A
C1435      C3298   1.482       .  S
Cd1436     O1443   2.428   1_545  S
Cd1436     O1442   2.423   1_545  S
Cd1436     O1441   2.438       .  S
Cd1436     O1437   2.442       .  S
Cd1436     O1440   2.488       .  S
Cd1436     O1438   2.419       .  S
C1439      O1443   1.263       .  A
C1439      C1957   1.484       .  S
O1444      C1447   1.267       .  A
O1444     Cd1449   2.461       .  S
C1445      O1454   1.263       .  A
C1445      O1450   1.263       .  A
C1445      C3469   1.478       .  S
O1446      C1452   1.266       .  A
O1446     Cd1449   2.485   1_556  S
C1447      O1455   1.265       .  A
C1447      C2055   1.475       .  S
C1448      O1453   1.267       .  A
C1448      O1451   1.262       .  A
C1448      C1982   1.471       .  S
Cd1449     O1456   2.413   1_554  S
Cd1449     O1455   2.397       .  S
Cd1449     O1454   2.406   1_554  S
Cd1449     O1450   2.467   1_554  S
Cd1449     O1453   2.476       .  S
Cd1449     O1451   2.415       .  S
C1452      O1456   1.264       .  A
C1452      C2251   1.483       .  S
O1457      C1460   1.266       .  A
O1457     Cd1462   2.454       .  S
C1458      O1467   1.265       .  A
C1458      O1463   1.263       .  A
C1458      C3833   1.474       .  S
O1459      C1465   1.266       .  A
O1459     Cd1462   2.460       .  S
C1460      O1468   1.263       .  A
C1460      C2391   1.477       .  S
C1461      O1466   1.267       .  A
C1461      O1464   1.264       .  A
C1461      C1593   1.473       .  S
Cd1462     O1469   2.417       .  S
Cd1462     O1468   2.409       .  S
Cd1462     O1467   2.415   1_554  S
Cd1462     O1463   2.451   1_554  S
Cd1462     O1466   2.472   1_554  S
Cd1462     O1464   2.405   1_554  S
C1465      O1469   1.263       .  A
C1465      C3609   1.461       .  S
O1470      C1473   1.265       .  A
O1470     Cd1475   2.471   1_565  S
C1471      O1480   1.266       .  A
C1471      O1476   1.265       .  A
C1471      C1940   1.484       .  S
O1472      C1478   1.267       .  A
O1472     Cd1475   2.480       .  S
C1473      O1481   1.266       .  A
C1473      C1817   1.483       .  S
C1474      O1479   1.266       .  A
C1474      O1477   1.262       .  A
C1474      C3553   1.472       .  S
Cd1475     O1482   2.381       .  S
Cd1475     O1481   2.446   1_545  S
Cd1475     O1480   2.442       .  S
Cd1475     O1476   2.466       .  S
Cd1475     O1479   2.490   1_545  S
Cd1475     O1477   2.381   1_545  S
C1478      O1482   1.265       .  A
C1478      C1887   1.481       .  S
O1483      C1486   1.264       .  A
O1483     Cd1488   2.457       .  S
C1484      O1493   1.267       .  A
C1484      O1489   1.266       .  A
C1484      C2461   1.476       .  S
O1485      C1491   1.266       .  A
O1485     Cd1488   2.480       .  S
C1486      O1494   1.264       .  A
C1486      C2825   1.469       .  S
C1487      O1492   1.267       .  A
C1487      O1490   1.263       .  A
C1487      C2769   1.477       .  S
Cd1488     O1495   2.415       .  S
Cd1488     O1494   2.422       .  S
Cd1488     O1493   2.428       .  S
Cd1488     O1489   2.450       .  S
Cd1488     O1492   2.477       .  S
Cd1488     O1490   2.407       .  S
C1491      O1495   1.263       .  A
C1491      C3119   1.472       .  S
O1496      C1499   1.265       .  A
O1496     Cd1501   2.462       .  S
C1497      O1506   1.264       .  A
C1497      O1502   1.261       .  A
C1497      C3788   1.455       .  S
O1498      C1504   1.265       .  A
O1498     Cd1501   2.483       .  S
C1499      O1507   1.266       .  A
C1499      C2783   1.461       .  S
C1500      O1505   1.267       .  A
C1500      O1503   1.265       .  A
C1500      C4757   1.483       .  S
Cd1501     O1508   2.422       .  S
Cd1501     O1507   2.381       .  S
Cd1501     O1506   2.431       .  S
Cd1501     O1502   2.439       .  S
Cd1501     O1505   2.481       .  S
Cd1501     O1503   2.455       .  S
C1504      O1508   1.262       .  A
C1504      C3931   1.480       .  S
O1509      C1512   1.262       .  A
O1509     Cd1514   2.427       .  S
C1510      O1519   1.266       .  A
C1510      O1515   1.263       .  A
C1510      C4239   1.468       .  S
O1511      C1517   1.265       .  A
O1511     Cd1514   2.471       .  S
C1512      O1520   1.265       .  A
C1512      C2573   1.452       .  S
C1513      O1518   1.266       .  A
C1513      O1516   1.265       .  A
C1513      C2643   1.473       .  S
Cd1514     O1521   2.406       .  S
Cd1514     O1520   2.419       .  S
Cd1514     O1519   2.402       .  S
Cd1514     O1515   2.439       .  S
Cd1514     O1518   2.460       .  S
Cd1514     O1516   2.405       .  S
C1517      O1521   1.263       .  A
C1517      C3847   1.475       .  S
O1522      C1525   1.267       .  A
O1522     Cd1527   2.477       .  S
C1523      O1532   1.264       .  A
C1523      O1528   1.266       .  A
C1523      C3343   1.487   1_655  S
O1524      C1530   1.267       .  A
O1524     Cd1527   2.494       .  S
C1525      O1533   1.266       .  A
C1525      C2685   1.479       .  S
C1526      O1531   1.268   1_455  A
C1526      O1529   1.266       .  A
C1526      C2318   1.489       .  S
Cd1527     O1534   2.418       .  S
Cd1527     O1533   2.447       .  S
Cd1527     O1532   2.431       .  S
Cd1527     O1528   2.498       .  S
Cd1527     O1531   2.503       .  S
Cd1527     O1529   2.404   1_655  S
C1530      O1534   1.262       .  A
C1530      C1915   1.479       .  S
O1535      C1538   1.265       .  A
O1535     Cd1540   2.436       .  S
C1536      O1545   1.264       .  A
C1536      O1541   1.262       .  A
C1536      C3889   1.467       .  S
O1537      C1543   1.267       .  A
O1537     Cd1540   2.482       .  S
C1538      O1546   1.267       .  A
C1538      C4379   1.462       .  S
C1539      O1544   1.266       .  A
C1539      O1542   1.263       .  A
C1539      C4589   1.474       .  S
Cd1540     O1547   2.401       .  S
Cd1540     O1546   2.431       .  S
Cd1540     O1545   2.414       .  S
Cd1540     O1541   2.475       .  S
Cd1540     O1544   2.491       .  S
Cd1540     O1542   2.429       .  S
C1543      O1547   1.262       .  A
C1543      C3973   1.481       .  S
O1548      C1551   1.266       .  A
O1548     Cd1553   2.464       .  S
C1549      O1558   1.263       .  A
C1549      O1554   1.265       .  A
C1549      C2542   1.466       .  S
O1550      C1556   1.266       .  A
O1550     Cd1553   2.459       .  S
C1551      O1559   1.263       .  A
C1551      C3721   1.466       .  S
C1552      O1557   1.267       .  A
C1552      O1555   1.264       .  A
C1552      C4855   1.477       .  S
Cd1553     O1560   2.440       .  S
Cd1553     O1559   2.374       .  S
Cd1553     O1558   2.387       .  S
Cd1553     O1554   2.477       .  S
Cd1553     O1557   2.470       .  S
Cd1553     O1555   2.437       .  S
C1556      O1560   1.266       .  A
C1556      C2601   1.480       .  S
C1561      C1562   1.405       .  A
C1561      C1566   1.407       .  A
C1561      H1568   1.084       .  S
C1562      C1563   1.418       .  A
C1563      C1564   1.395   1_455  A
C1563      N1570   1.434       .  S
C1564      C1565   1.402   1_655  A
C1564      H1569   1.084       .  S
C1565      C1566   1.416       .  A
C1566      N1567   1.432       .  S
N1567      O1571   1.262       .  A
N1567      O1572   1.262       .  A
N1570      O1573   1.262       .  A
N1570      O1574   1.263   1_455  A
C1575      C1576   1.407       .  A
C1575      C1580   1.411       .  A
C1575      H1582   1.083       .  S
C1576      C1577   1.417       .  A
C1577      C1578   1.395       .  A
C1577      N1584   1.434       .  S
C1578      C1579   1.403       .  A
C1578      H1583   1.084       .  S
C1579      C1580   1.418       .  A
C1580      N1581   1.435       .  S
N1581      O1585   1.262       .  A
N1581      O1586   1.262       .  A
N1584      O1587   1.263       .  A
N1584      O1588   1.263       .  A
C1589      C1590   1.403       .  A
C1589      C1594   1.394       .  A
C1589      H1596   1.084       .  S
C1590      C1591   1.414       .  A
C1591      C1592   1.406       .  A
C1591      N1598   1.438       .  S
C1592      C1593   1.405       .  A
C1592      H1597   1.084       .  S
C1593      C1594   1.412       .  A
C1594      N1595   1.439       .  S
N1595      O1599   1.263       .  A
N1595      O1600   1.263       .  A
N1598      O1601   1.263       .  A
N1598      O1602   1.263       .  A
C1603      C1604   1.404       .  A
C1603      C1608   1.393       .  A
C1603      H1610   1.084       .  S
C1604      C1605   1.413       .  A
C1605      C1606   1.405       .  A
C1605      N1612   1.433       .  S
C1606      C1607   1.406       .  A
C1606      H1611   1.084       .  S
C1607      C1608   1.412       .  A
C1608      N1609   1.432       .  S
N1609      O1613   1.262       .  A
N1609      O1614   1.262       .  A
N1612      O1615   1.262       .  A
N1612      O1616   1.262       .  A
C1617      C1618   1.403       .  A
C1617      C1622   1.402       .  A
C1617      H1624   1.084       .  S
C1618      C1619   1.418       .  A
C1619      C1620   1.406       .  A
C1619      N1626   1.442       .  S
C1620      C1621   1.403       .  A
C1620      H1625   1.084       .  S
C1621      C1622   1.412       .  A
C1622      N1623   1.436       .  S
N1623      O1627   1.263       .  A
N1623      O1628   1.262       .  A
N1626      O1629   1.261       .  A
N1626      O1630   1.263       .  A
C1631      C1632   1.407       .  A
C1631      C1636   1.412       .  A
C1631      H1638   1.083       .  S
C1632      C1633   1.415       .  A
C1633      C1634   1.399       .  A
C1633      N1640   1.437       .  S
C1634      C1635   1.406       .  A
C1634      H1639   1.084       .  S
C1635      C1636   1.418       .  A
C1636      N1637   1.436       .  S
N1637      O1641   1.263       .  A
N1637      O1642   1.262       .  A
N1640      O1643   1.263       .  A
N1640      O1644   1.263       .  A
C1645      C1646   1.401       .  A
C1645      C1650   1.395       .  A
C1645      H1652   1.084       .  S
C1646      C1647   1.417       .  A
C1647      C1648   1.407       .  A
C1647      N1654   1.437       .  S
C1648      C1649   1.403       .  A
C1648      H1653   1.084       .  S
C1649      C1650   1.414       .  A
C1650      N1651   1.439       .  S
N1651      O1655   1.263       .  A
N1651      O1656   1.263       .  A
N1654      O1657   1.263       .  A
N1654      O1658   1.263       .  A
C1659      C1660   1.403       .  A
C1659      C1664   1.405       .  A
C1659      H1666   1.084       .  S
C1660      C1661   1.415       .  A
C1661      C1662   1.398       .  A
C1661      N1668   1.438       .  S
C1662      C1663   1.402       .  A
C1662      H1667   1.084       .  S
C1663      C1664   1.416       .  A
C1664      N1665   1.437       .  S
N1665      O1669   1.263       .  A
N1665      O1670   1.262       .  A
N1668      O1671   1.263       .  A
N1668      O1672   1.263       .  A
C1673      C1674   1.400       .  A
C1673      C1678   1.401       .  A
C1673      H1680   1.084       .  S
C1674      C1675   1.417       .  A
C1675      C1676   1.412       .  A
C1675      N1682   1.440       .  S
C1676      C1677   1.405       .  A
C1676      H1681   1.083   1_655  S
C1677      C1678   1.419       .  A
C1678      N1679   1.440       .  S
N1679      O1683   1.263       .  A
N1679      O1684   1.261       .  A
N1682      O1685   1.263       .  A
N1682      O1686   1.263       .  A
C1687      C1688   1.402       .  A
C1687      C1692   1.401       .  A
C1687      H1694   1.084       .  S
C1688      C1689   1.419       .  A
C1689      C1690   1.411       .  A
C1689      N1696   1.438       .  S
C1690      C1691   1.404       .  A
C1690      H1695   1.084       .  S
C1691      C1692   1.416       .  A
C1692      N1693   1.439       .  S
N1693      O1697   1.263       .  A
N1693      O1698   1.263       .  A
N1696      O1699   1.263       .  A
N1696      O1700   1.263       .  A
C1701      C1702   1.406       .  A
C1701      C1706   1.407       .  A
C1701      H1708   1.084       .  S
C1702      C1703   1.414       .  A
C1703      C1704   1.397       .  A
C1703      N1710   1.438       .  S
C1704      C1705   1.403       .  A
C1704      H1709   1.084       .  S
C1705      C1706   1.415       .  A
C1706      N1707   1.438       .  S
N1707      O1711   1.263       .  A
N1707      O1712   1.263       .  A
N1710      O1713   1.263       .  A
N1710      O1714   1.263       .  A
C1715      C1716   1.401       .  A
C1715      C1720   1.397       .  A
C1715      H1722   1.084       .  S
C1716      C1717   1.417       .  A
C1717      C1718   1.405       .  A
C1717      N1724   1.431       .  S
C1718      C1719   1.405       .  A
C1718      H1723   1.084       .  S
C1719      C1720   1.418       .  A
C1720      N1721   1.433       .  S
N1721      O1725   1.262       .  A
N1721      O1726   1.262       .  A
N1724      O1727   1.262       .  A
N1724      O1728   1.262       .  A
C1729      C1730   1.401       .  A
C1729      C1734   1.401       .  A
C1729      H1736   1.084       .  S
C1730      C1731   1.417       .  A
C1731      C1732   1.399       .  A
C1731      N1738   1.444       .  S
C1732      C1733   1.398       .  A
C1732      H1737   1.084       .  S
C1733      C1734   1.412       .  A
C1734      N1735   1.443       .  S
N1735      O1739   1.263       .  A
N1735      O1740   1.262       .  A
N1738      O1741   1.261       .  A
N1738      O1742   1.263       .  A
C1743      C1744   1.405       .  A
C1743      C1748   1.404       .  A
C1743      H1750   1.084       .  S
C1744      C1745   1.417       .  A
C1745      C1746   1.408       .  A
C1745      N1752   1.436       .  S
C1746      C1747   1.407       .  A
C1746      H1751   1.084       .  S
C1747      C1748   1.415       .  A
C1748      N1749   1.436   1_655  S
N1749      O1753   1.263       .  A
N1749      O1754   1.262       .  A
N1752      O1755   1.263       .  A
N1752      O1756   1.262       .  A
C1757      C1758   1.404       .  A
C1757      C1762   1.411       .  A
C1757      H1764   1.084       .  S
C1758      C1759   1.416       .  A
C1759      C1760   1.399       .  A
C1759      N1766   1.439       .  S
C1760      C1761   1.401       .  A
C1760      H1765   1.084       .  S
C1761      C1762   1.418       .  A
C1762      N1763   1.439       .  S
N1763      O1767   1.263       .  A
N1763      O1768   1.263       .  A
N1766      O1769   1.262       .  A
N1766      O1770   1.263       .  A
C1771      C1772   1.406       .  A
C1771      C1776   1.408       .  A
C1771      H1778   1.083       .  S
C1772      C1773   1.416       .  A
C1773      C1774   1.394       .  A
C1773      N1780   1.433       .  S
C1774      C1775   1.403       .  A
C1774      H1779   1.084       .  S
C1775      C1776   1.417       .  A
C1776      N1777   1.435       .  S
N1777      O1781   1.263       .  A
N1777      O1782   1.262       .  A
N1780      O1783   1.262       .  A
N1780      O1784   1.262       .  A
C1785      C1786   1.402       .  A
C1785      C1790   1.395       .  A
C1785      H1792   1.084       .  S
C1786      C1787   1.415       .  A
C1787      C1788   1.408       .  A
C1787      N1794   1.434       .  S
C1788      C1789   1.406       .  A
C1788      H1793   1.084       .  S
C1789      C1790   1.412       .  A
C1790      N1791   1.431       .  S
N1791      O1795   1.262       .  A
N1791      O1796   1.262       .  A
N1794      O1797   1.262       .  A
N1794      O1798   1.263       .  A
C1799      C1800   1.405       .  A
C1799      C1804   1.410       .  A
C1799      H1806   1.084       .  S
C1800      C1801   1.415       .  A
C1801      C1802   1.406       .  A
C1801      N1808   1.445       .  S
C1802      C1803   1.403       .  A
C1802      H1807   1.084       .  S
C1803      C1804   1.416       .  A
C1804      N1805   1.445       .  S
N1805      O1809   1.263       .  A
N1805      O1810   1.262       .  A
N1808      O1811   1.262       .  A
N1808      O1812   1.263       .  A
C1813      C1814   1.405       .  A
C1813      C1818   1.405       .  A
C1813      H1820   1.084       .  S
C1814      C1815   1.416       .  A
C1815      C1816   1.398       .  A
C1815      N1822   1.431       .  S
C1816      C1817   1.403       .  A
C1816      H1821   1.084       .  S
C1817      C1818   1.415       .  A
C1818      N1819   1.432       .  S
N1819      O1823   1.262       .  A
N1819      O1824   1.262       .  A
N1822      O1825   1.262       .  A
N1822      O1826   1.262       .  A
C1827      C1828   1.401       .  A
C1827      C1832   1.402       .  A
C1827      H1834   1.085       .  S
C1828      C1829   1.420       .  A
C1829      C1830   1.412   1_556  A
C1829      N1836   1.444       .  S
C1830      C1831   1.403       .  A
C1830      H1835   1.084       .  S
C1831      C1832   1.416   1_554  A
C1832      N1833   1.438   1_556  S
N1833      O1837   1.263   1_554  A
N1833      O1838   1.262       .  A
N1836      O1839   1.262       .  A
N1836      O1840   1.263   1_556  A
C1841      C1842   1.402       .  A
C1841      C1846   1.410   1_565  A
C1841      H1848   1.084       .  S
C1842      C1843   1.414       .  A
C1843      C1844   1.405   1_565  A
C1843      N1850   1.440       .  S
C1844      C1845   1.397       .  A
C1844      H1849   1.080       .  S
C1845      C1846   1.417       .  A
C1846      N1847   1.431       .  S
N1847      O1851   1.262   1_545  A
N1847      O1852   1.262       .  A
N1850      O1853   1.261       .  A
N1850      O1854   1.261   1_565  A
C1855      C1856   1.399       .  A
C1855      C1860   1.392       .  A
C1855      H1862   1.084       .  S
C1856      C1857   1.415       .  A
C1857      C1858   1.406       .  A
C1857      N1864   1.438       .  S
C1858      C1859   1.404       .  A
C1858      H1863   1.083       .  S
C1859      C1860   1.416       .  A
C1860      N1861   1.437       .  S
N1861      O1865   1.263       .  A
N1861      O1866   1.263       .  A
N1864      O1867   1.263   1_554  A
N1864      O1868   1.263       .  A
C1869      C1870   1.407       .  A
C1869      C1874   1.413       .  A
C1869      H1876   1.084       .  S
C1870      C1871   1.413       .  A
C1871      C1872   1.402       .  A
C1871      N1878   1.441       .  S
C1872      C1873   1.403       .  A
C1872      H1877   1.084       .  S
C1873      C1874   1.416       .  A
C1874      N1875   1.442       .  S
N1875      O1879   1.263       .  A
N1875      O1880   1.263       .  A
N1878      O1881   1.263       .  A
N1878      O1882   1.263       .  A
C1883      C1884   1.404       .  A
C1883      C1888   1.407       .  A
C1883      H1890   1.084       .  S
C1884      C1885   1.410       .  A
C1885      C1886   1.387       .  A
C1885      N1892   1.430       .  S
C1886      C1887   1.403       .  A
C1886      H1891   1.084       .  S
C1887      C1888   1.419       .  A
C1888      N1889   1.434       .  S
N1889      O1893   1.263       .  A
N1889      O1894   1.262       .  A
N1892      O1895   1.262       .  A
N1892      O1896   1.262       .  A
C1897      C1898   1.404       .  A
C1897      C1902   1.403       .  A
C1897      H1904   1.084       .  S
C1898      C1899   1.418       .  A
C1899      C1900   1.405       .  A
C1899      N1906   1.433       .  S
C1900      C1901   1.404       .  A
C1900      H1905   1.084       .  S
C1901      C1902   1.418       .  A
C1902      N1903   1.437       .  S
N1903      O1907   1.263       .  A
N1903      O1908   1.263       .  A
N1906      O1909   1.262       .  A
N1906      O1910   1.262       .  A
C1911      C1912   1.404       .  A
C1911      C1916   1.393       .  A
C1911      H1918   1.084       .  S
C1912      C1913   1.416       .  A
C1913      C1914   1.407       .  A
C1913      N1920   1.433       .  S
C1914      C1915   1.406       .  A
C1914      H1919   1.084       .  S
C1915      C1916   1.410       .  A
C1916      N1917   1.431       .  S
N1917      O1921   1.262       .  A
N1917      O1922   1.262       .  A
N1920      O1923   1.262       .  A
N1920      O1924   1.262       .  A
C1925      C1926   1.407       .  A
C1925      C1930   1.413       .  A
C1925      H1932   1.083       .  S
C1926      C1927   1.418       .  A
C1927      C1928   1.398       .  A
C1927      N1934   1.438       .  S
C1928      C1929   1.402       .  A
C1928      H1933   1.084       .  S
C1929      C1930   1.418       .  A
C1930      N1931   1.436       .  S
N1931      O1935   1.263       .  A
N1931      O1936   1.262       .  A
N1934      O1937   1.262       .  A
N1934      O1938   1.263       .  A
C1939      C1940   1.402       .  A
C1939      C1944   1.397       .  A
C1939      H1946   1.084       .  S
C1940      C1941   1.416       .  A
C1941      C1942   1.405       .  A
C1941      N1948   1.431       .  S
C1942      C1943   1.404       .  A
C1942      H1947   1.084       .  S
C1943      C1944   1.418       .  A
C1944      N1945   1.433       .  S
N1945      O1949   1.262       .  A
N1945      O1950   1.262       .  A
N1948      O1951   1.262       .  A
N1948      O1952   1.262   1_545  A
C1953      C1954   1.404       .  A
C1953      C1958   1.406       .  A
C1953      H1960   1.084       .  S
C1954      C1955   1.410       .  A
C1955      C1956   1.395       .  A
C1955      N1962   1.430       .  S
C1956      C1957   1.405       .  A
C1956      H1961   1.084       .  S
C1957      C1958   1.416       .  A
C1958      N1959   1.433       .  S
N1959      O1963   1.262       .  A
N1959      O1964   1.262       .  A
N1962      O1965   1.262       .  A
N1962      O1966   1.262       .  A
C1967      C1968   1.407       .  A
C1967      C1972   1.412       .  A
C1967      H1974   1.083       .  S
C1968      C1969   1.415       .  A
C1969      C1970   1.393       .  A
C1969      N1976   1.435       .  S
C1970      C1971   1.404       .  A
C1970      H1975   1.084       .  S
C1971      C1972   1.418       .  A
C1972      N1973   1.435       .  S
N1973      O1977   1.263       .  A
N1973      O1978   1.262       .  A
N1976      O1979   1.262       .  A
N1976      O1980   1.263       .  A
C1981      C1982   1.404       .  A
C1981      C1986   1.406       .  A
C1981      H1988   1.084       .  S
C1982      C1983   1.412       .  A
C1983      C1984   1.395       .  A
C1983      N1990   1.435       .  S
C1984      C1985   1.401       .  A
C1984      H1989   1.084       .  S
C1985      C1986   1.414       .  A
C1986      N1987   1.438       .  S
N1987      O1991   1.263   1_554  A
N1987      O1992   1.261       .  A
N1990      O1993   1.262       .  A
N1990      O1994   1.262       .  A
C1995      C1996   1.406       .  A
C1995      C2000   1.413       .  A
C1995      H2002   1.084       .  S
C1996      C1997   1.418       .  A
C1997      C1998   1.412       .  A
C1997      N2004   1.440       .  S
C1998      C1999   1.406       .  A
C1998      H2003   1.084       .  S
C1999      C2000   1.418       .  A
C2000      N2001   1.441       .  S
N2001      O2005   1.263       .  A
N2001      O2006   1.263   1_655  A
N2004      O2007   1.263       .  A
N2004      O2008   1.263       .  A
C2009      C2010   1.401   1_455  A
C2009      C2014   1.396       .  A
C2009      H2016   1.084       .  S
C2010      C2011   1.417       .  A
C2011      C2012   1.410   1_655  A
C2011      N2018   1.437       .  S
C2012      C2013   1.405       .  A
C2012      H2017   1.083       .  S
C2013      C2014   1.416       .  A
C2014      N2015   1.436       .  S
N2015      O2019   1.263       .  A
N2015      O2020   1.262       .  A
N2018      O2021   1.263       .  A
N2018      O2022   1.263       .  A
C2023      C2024   1.405       .  A
C2023      C2028   1.408       .  A
C2023      H2030   1.084       .  S
C2024      C2025   1.416       .  A
C2025      C2026   1.408       .  A
C2025      N2032   1.439       .  S
C2026      C2027   1.405       .  A
C2026      H2031   1.084       .  S
C2027      C2028   1.416       .  A
C2028      N2029   1.439       .  S
N2029      O2033   1.263       .  A
N2029      O2034   1.263       .  A
N2032      O2035   1.263       .  A
N2032      O2036   1.263       .  A
C2037      C2038   1.405       .  A
C2037      C2042   1.405       .  A
C2037      H2044   1.084       .  S
C2038      C2039   1.419       .  A
C2039      C2040   1.415       .  A
C2039      N2046   1.441       .  S
C2040      C2041   1.406       .  A
C2040      H2045   1.083       .  S
C2041      C2042   1.413       .  A
C2042      N2043   1.434       .  S
N2043      O2047   1.262       .  A
N2043      O2048   1.261       .  A
N2046      O2049   1.261       .  A
N2046      O2050   1.263       .  A
C2051      C2052   1.405       .  A
C2051      C2056   1.393       .  A
C2051      H2058   1.084       .  S
C2052      C2053   1.415       .  A
C2053      C2054   1.405       .  A
C2053      N2060   1.434       .  S
C2054      C2055   1.405       .  A
C2054      H2059   1.084       .  S
C2055      C2056   1.412       .  A
C2056      N2057   1.437       .  S
N2057      O2061   1.263       .  A
N2057      O2062   1.262       .  A
N2060      O2063   1.262       .  A
N2060      O2064   1.263       .  A
C2065      C2066   1.403       .  A
C2065      C2070   1.405       .  A
C2065      H2072   1.084       .  S
C2066      C2067   1.415       .  A
C2067      C2068   1.407       .  A
C2067      N2074   1.442       .  S
C2068      C2069   1.405       .  A
C2068      H2073   1.084       .  S
C2069      C2070   1.416       .  A
C2070      N2071   1.439       .  S
N2071      O2075   1.263       .  A
N2071      O2076   1.263       .  A
N2074      O2077   1.263       .  A
N2074      O2078   1.263       .  A
C2079      C2080   1.404       .  A
C2079      C2084   1.399       .  A
C2079      H2086   1.084       .  S
C2080      C2081   1.419       .  A
C2081      C2082   1.410       .  A
C2081      N2088   1.436       .  S
C2082      C2083   1.404       .  A
C2082      H2087   1.084       .  S
C2083      C2084   1.415       .  A
C2084      N2085   1.439       .  S
N2085      O2089   1.263       .  A
N2085      O2090   1.263       .  A
N2088      O2091   1.262       .  A
N2088      O2092   1.263       .  A
C2093      C2094   1.404       .  A
C2093      C2098   1.406       .  A
C2093      H2100   1.084       .  S
C2094      C2095   1.415       .  A
C2095      C2096   1.410       .  A
C2095      N2102   1.442       .  S
C2096      C2097   1.405       .  A
C2096      H2101   1.084       .  S
C2097      C2098   1.414       .  A
C2098      N2099   1.443       .  S
N2099      O2103   1.263       .  A
N2099      O2104   1.263       .  A
N2102      O2105   1.263       .  A
N2102      O2106   1.263       .  A
C2107      C2108   1.402       .  A
C2107      C2112   1.399       .  A
C2107      H2114   1.084       .  S
C2108      C2109   1.417       .  A
C2109      C2110   1.406       .  A
C2109      N2116   1.437       .  S
C2110      C2111   1.403       .  A
C2110      H2115   1.084       .  S
C2111      C2112   1.416       .  A
C2112      N2113   1.439       .  S
N2113      O2117   1.263       .  A
N2113      O2118   1.263       .  A
N2116      O2119   1.263       .  A
N2116      O2120   1.263       .  A
C2121      C2122   1.400       .  A
C2121      C2126   1.404       .  A
C2121      H2128   1.084       .  S
C2122      C2123   1.418       .  A
C2123      C2124   1.409       .  A
C2123      N2130   1.441       .  S
C2124      C2125   1.402       .  A
C2124      H2129   1.084       .  S
C2125      C2126   1.416       .  A
C2126      N2127   1.441       .  S
N2127      O2131   1.263       .  A
N2127      O2132   1.262       .  A
N2130      O2133   1.261       .  A
N2130      O2134   1.263       .  A
C2135      C2136   1.401       .  A
C2135      C2140   1.397       .  A
C2135      H2142   1.084       .  S
C2136      C2137   1.416       .  A
C2137      C2138   1.406       .  A
C2137      N2144   1.438       .  S
C2138      C2139   1.403       .  A
C2138      H2143   1.084       .  S
C2139      C2140   1.415       .  A
C2140      N2141   1.439       .  S
N2141      O2145   1.263       .  A
N2141      O2146   1.263       .  A
N2144      O2147   1.262       .  A
N2144      O2148   1.263       .  A
C2149      C2150   1.405       .  A
C2149      C2154   1.415       .  A
C2149      H2156   1.083       .  S
C2150      C2151   1.414       .  A
C2151      C2152   1.401   1_655  A
C2151      N2158   1.436       .  S
C2152      C2153   1.399       .  A
C2152      H2157   1.084       .  S
C2153      C2154   1.420   1_455  A
C2154      N2155   1.442       .  S
N2155      O2159   1.263       .  A
N2155      O2160   1.263   1_655  A
N2158      O2161   1.262       .  A
N2158      O2162   1.263       .  A
C2163      C2164   1.401       .  A
C2163      C2168   1.404       .  A
C2163      H2170   1.084       .  S
C2164      C2165   1.419       .  A
C2165      C2166   1.410       .  A
C2165      N2172   1.441       .  S
C2166      C2167   1.402       .  A
C2166      H2171   1.084       .  S
C2167      C2168   1.416       .  A
C2168      N2169   1.442       .  S
N2169      O2173   1.263       .  A
N2169      O2174   1.263       .  A
N2172      O2175   1.262       .  A
N2172      O2176   1.263       .  A
C2177      C2178   1.401       .  A
C2177      C2182   1.402       .  A
C2177      H2184   1.081       .  S
C2178      C2179   1.416       .  A
C2179      C2180   1.409       .  A
C2179      N2186   1.443       .  S
C2180      C2181   1.405       .  A
C2180      H2185   1.084       .  S
C2181      C2182   1.412       .  A
C2182      N2183   1.441       .  S
N2183      O2187   1.263       .  A
N2183      O2188   1.263       .  A
N2186      O2189   1.262       .  A
N2186      O2190   1.263       .  A
C2191      C2192   1.398       .  A
C2191      C2196   1.387       .  A
C2191      H2198   1.077       .  S
C2192      C2193   1.415       .  A
C2193      C2194   1.407       .  A
C2193      N2200   1.437       .  S
C2194      C2195   1.405       .  A
C2194      H2199   1.083       .  S
C2195      C2196   1.407       .  A
C2196      N2197   1.431       .  S
N2197      O2201   1.262       .  A
N2197      O2202   1.262       .  A
N2200      O2203   1.262       .  A
N2200      O2204   1.263       .  A
C2205      C2206   1.403       .  A
C2205      C2210   1.409   1_556  A
C2205      H2212   1.084       .  S
C2206      C2207   1.416   1_556  A
C2207      C2208   1.412       .  A
C2207      N2214   1.442   1_554  S
C2208      C2209   1.406       .  A
C2208      H2213   1.084       .  S
C2209      C2210   1.421       .  A
C2210      N2211   1.444       .  S
N2211      O2215   1.263       .  A
N2211      O2216   1.261       .  A
N2214      O2217   1.263       .  A
N2214      O2218   1.263   1_556  A
C2219      C2220   1.403       .  A
C2219      C2224   1.407   1_565  A
C2219      H2226   1.084       .  S
C2220      C2221   1.417       .  A
C2221      C2222   1.407   1_565  A
C2221      N2228   1.441       .  S
C2222      C2223   1.403       .  A
C2222      H2227   1.084       .  S
C2223      C2224   1.415       .  A
C2224      N2225   1.441       .  S
N2225      O2229   1.263       .  A
N2225      O2230   1.263       .  A
N2228      O2231   1.263       .  A
N2228      O2232   1.263   1_565  A
C2233      C2234   1.407       .  A
C2233      C2238   1.413       .  A
C2233      H2240   1.083       .  S
C2234      C2235   1.417       .  A
C2235      C2236   1.398       .  A
C2235      N2242   1.436       .  S
C2236      C2237   1.404       .  A
C2236      H2241   1.084       .  S
C2237      C2238   1.418       .  A
C2238      N2239   1.435       .  S
N2239      O2243   1.262       .  A
N2239      O2244   1.262       .  A
N2242      O2245   1.263       .  A
N2242      O2246   1.263       .  A
C2247      C2248   1.404       .  A
C2247      C2252   1.407       .  A
C2247      H2254   1.084       .  S
C2248      C2249   1.410       .  A
C2249      C2250   1.392       .  A
C2249      N2256   1.430       .  S
C2250      C2251   1.404       .  A
C2250      H2255   1.084       .  S
C2251      C2252   1.418       .  A
C2252      N2253   1.433       .  S
N2253      O2257   1.262       .  A
N2253      O2258   1.262       .  A
N2256      O2259   1.262       .  A
N2256      O2260   1.262   1_556  A
C2261      C2262   1.406       .  A
C2261      C2266   1.410       .  A
C2261      H2268   1.083       .  S
C2262      C2263   1.416       .  A
C2263      C2264   1.400       .  A
C2263      N2270   1.436       .  S
C2264      C2265   1.406       .  A
C2264      H2269   1.084       .  S
C2265      C2266   1.418       .  A
C2266      N2267   1.436       .  S
N2267      O2271   1.263       .  A
N2267      O2272   1.262       .  A
N2270      O2273   1.263       .  A
N2270      O2274   1.263       .  A
C2275      C2276   1.404       .  A
C2275      C2280   1.408       .  A
C2275      H2282   1.084       .  S
C2276      C2277   1.415       .  A
C2277      C2278   1.398       .  A
C2277      N2284   1.439       .  S
C2278      C2279   1.402       .  A
C2278      H2283   1.084       .  S
C2279      C2280   1.418       .  A
C2280      N2281   1.437       .  S
N2281      O2285   1.263       .  A
N2281      O2286   1.263       .  A
N2284      O2287   1.263       .  A
N2284      O2288   1.263       .  A
C2289      C2290   1.405       .  A
C2289      C2294   1.395       .  A
C2289      H2296   1.084       .  S
C2290      C2291   1.418       .  A
C2291      C2292   1.412       .  A
C2291      N2298   1.435       .  S
C2292      C2293   1.408       .  A
C2292      H2297   1.083       .  S
C2293      C2294   1.416       .  A
C2294      N2295   1.434       .  S
N2295      O2299   1.262       .  A
N2295      O2300   1.262       .  A
N2298      O2301   1.262       .  A
N2298      O2302   1.262       .  A
C2303      C2304   1.400       .  A
C2303      C2308   1.393       .  A
C2303      H2310   1.084       .  S
C2304      C2305   1.417       .  A
C2305      C2306   1.405       .  A
C2305      N2312   1.436       .  S
C2306      C2307   1.404       .  A
C2306      H2311   1.083       .  S
C2307      C2308   1.417       .  A
C2308      N2309   1.435       .  S
N2309      O2313   1.263       .  A
N2309      O2314   1.263       .  A
N2312      O2315   1.263   1_565  A
N2312      O2316   1.263       .  A
C2317      C2318   1.401       .  A
C2317      C2322   1.390       .  A
C2317      H2324   1.084       .  S
C2318      C2319   1.419       .  A
C2319      C2320   1.412       .  A
C2319      N2326   1.435       .  S
C2320      C2321   1.407       .  A
C2320      H2325   1.083       .  S
C2321      C2322   1.414       .  A
C2322      N2323   1.428       .  S
N2323      O2327   1.261       .  A
N2323      O2328   1.261       .  A
N2326      O2329   1.262       .  A
N2326      O2330   1.263       .  A
C2331      C2332   1.404       .  A
C2331      C2336   1.412       .  A
C2331      H2338   1.083       .  S
C2332      C2333   1.416       .  A
C2333      C2334   1.401       .  A
C2333      N2340   1.439       .  S
C2334      C2335   1.402       .  A
C2334      H2339   1.084       .  S
C2335      C2336   1.420       .  A
C2336      N2337   1.439       .  S
N2337      O2341   1.263       .  A
N2337      O2342   1.262       .  A
N2340      O2343   1.263       .  A
N2340      O2344   1.263       .  A
C2345      C2346   1.401       .  A
C2345      C2350   1.404       .  A
C2345      H2352   1.084       .  S
C2346      C2347   1.417       .  A
C2347      C2348   1.403       .  A
C2347      N2354   1.445       .  S
C2348      C2349   1.401       .  A
C2348      H2353   1.084       .  S
C2349      C2350   1.416       .  A
C2350      N2351   1.442       .  S
N2351      O2355   1.263       .  A
N2351      O2356   1.261       .  A
N2354      O2357   1.262       .  A
N2354      O2358   1.263       .  A
C2359      C2360   1.404       .  A
C2359      C2364   1.414       .  A
C2359      H2366   1.083       .  S
C2360      C2361   1.417       .  A
C2361      C2362   1.402   1_554  A
C2361      N2368   1.440       .  S
C2362      C2363   1.401       .  A
C2362      H2367   1.084       .  S
C2363      C2364   1.418   1_556  A
C2364      N2365   1.441       .  S
N2365      O2369   1.263       .  A
N2365      O2370   1.263   1_554  A
N2368      O2371   1.263       .  A
N2368      O2372   1.263   1_554  A
C2373      C2374   1.407       .  A
C2373      C2378   1.411       .  A
C2373      H2380   1.083       .  S
C2374      C2375   1.418       .  A
C2375      C2376   1.398       .  A
C2375      N2382   1.432       .  S
C2376      C2377   1.403       .  A
C2376      H2381   1.084       .  S
C2377      C2378   1.419       .  A
C2378      N2379   1.433       .  S
N2379      O2383   1.262       .  A
N2379      O2384   1.262       .  A
N2382      O2385   1.262       .  A
N2382      O2386   1.262       .  A
C2387      C2388   1.405       .  A
C2387      C2392   1.391       .  A
C2387      H2394   1.083       .  S
C2388      C2389   1.413       .  A
C2389      C2390   1.404       .  A
C2389      N2396   1.433       .  S
C2390      C2391   1.407       .  A
C2390      H2395   1.084       .  S
C2391      C2392   1.411       .  A
C2392      N2393   1.432       .  S
N2393      O2397   1.262       .  A
N2393      O2398   1.262       .  A
N2396      O2399   1.262       .  A
N2396      O2400   1.262       .  A
C2401      C2402   1.406       .  A
C2401      C2406   1.402       .  A
C2401      H2408   1.084       .  S
C2402      C2403   1.418       .  A
C2403      C2404   1.409       .  A
C2403      N2410   1.434       .  S
C2404      C2405   1.407       .  A
C2404      H2409   1.083       .  S
C2405      C2406   1.417       .  A
C2406      N2407   1.433       .  S
N2407      O2411   1.262       .  A
N2407      O2412   1.262       .  A
N2410      O2413   1.262       .  A
N2410      O2414   1.262       .  A
C2415      C2416   1.401       .  A
C2415      C2420   1.413       .  A
C2415      H2422   1.083       .  S
C2416      C2417   1.414       .  A
C2417      C2418   1.402       .  A
C2417      N2424   1.435       .  S
C2418      C2419   1.400       .  A
C2418      H2423   1.084       .  S
C2419      C2420   1.424       .  A
C2420      N2421   1.446       .  S
N2421      O2425   1.263       .  A
N2421      O2426   1.261       .  A
N2424      O2427   1.261       .  A
N2424      O2428   1.262       .  A
C2429      C2430   1.400       .  A
C2429      C2434   1.397       .  A
C2429      H2436   1.084       .  S
C2430      C2431   1.416       .  A
C2431      C2432   1.406       .  A
C2431      N2438   1.439       .  S
C2432      C2433   1.402       .  A
C2432      H2437   1.084       .  S
C2433      C2434   1.413       .  A
C2434      N2435   1.442       .  S
N2435      O2439   1.263       .  A
N2435      O2440   1.263       .  A
N2438      O2441   1.263       .  A
N2438      O2442   1.263       .  A
C2443      C2444   1.409       .  A
C2443      C2448   1.411       .  A
C2443      H2450   1.083       .  S
C2444      C2445   1.416       .  A
C2445      C2446   1.401       .  A
C2445      N2452   1.433       .  S
C2446      C2447   1.407       .  A
C2446      H2451   1.084       .  S
C2447      C2448   1.418       .  A
C2448      N2449   1.434       .  S
N2449      O2453   1.263       .  A
N2449      O2454   1.262       .  A
N2452      O2455   1.263       .  A
N2452      O2456   1.262       .  A
C2457      C2458   1.403       .  A
C2457      C2462   1.405       .  A
C2457      H2464   1.084       .  S
C2458      C2459   1.417       .  A
C2459      C2460   1.397       .  A
C2459      N2466   1.440       .  S
C2460      C2461   1.400       .  A
C2460      H2465   1.084       .  S
C2461      C2462   1.416       .  A
C2462      N2463   1.438       .  S
N2463      O2467   1.263       .  A
N2463      O2468   1.263       .  A
N2466      O2469   1.262       .  A
N2466      O2470   1.263       .  A
C2471      C2472   1.405       .  A
C2471      C2476   1.411       .  A
C2471      H2478   1.083       .  S
C2472      C2473   1.419       .  A
C2473      C2474   1.402       .  A
C2473      N2480   1.436       .  S
C2474      C2475   1.404       .  A
C2474      H2479   1.084       .  S
C2475      C2476   1.418       .  A
C2476      N2477   1.437       .  S
N2477      O2481   1.263       .  A
N2477      O2482   1.263       .  A
N2480      O2483   1.262       .  A
N2480      O2484   1.263       .  A
C2485      C2486   1.408       .  A
C2485      C2490   1.414       .  A
C2485      H2492   1.083       .  S
C2486      C2487   1.416       .  A
C2487      C2488   1.401       .  A
C2487      N2494   1.438       .  S
C2488      C2489   1.406       .  A
C2488      H2493   1.084       .  S
C2489      C2490   1.417       .  A
C2490      N2491   1.436       .  S
N2491      O2495   1.263       .  A
N2491      O2496   1.262       .  A
N2494      O2497   1.263       .  A
N2494      O2498   1.263       .  A
C2499      C2500   1.402       .  A
C2499      C2504   1.397       .  A
C2499      H2506   1.084       .  S
C2500      C2501   1.415       .  A
C2501      C2502   1.405       .  A
C2501      N2508   1.439       .  S
C2502      C2503   1.403       .  A
C2502      H2507   1.084       .  S
C2503      C2504   1.412       .  A
C2504      N2505   1.441       .  S
N2505      O2509   1.263       .  A
N2505      O2510   1.263       .  A
N2508      O2511   1.263       .  A
N2508      O2512   1.263       .  A
C2513      C2514   1.403       .  A
C2513      C2518   1.405       .  A
C2513      H2520   1.084       .  S
C2514      C2515   1.415       .  A
C2515      C2516   1.400       .  A
C2515      N2522   1.440       .  S
C2516      C2517   1.403       .  A
C2516      H2521   1.084       .  S
C2517      C2518   1.416       .  A
C2518      N2519   1.438       .  S
N2519      O2523   1.263       .  A
N2519      O2524   1.263       .  A
N2522      O2525   1.263       .  A
N2522      O2526   1.263       .  A
C2527      C2528   1.408       .  A
C2527      C2532   1.413       .  A
C2527      H2534   1.083       .  S
C2528      C2529   1.413       .  A
C2529      C2530   1.401       .  A
C2529      N2536   1.439       .  S
C2530      C2531   1.402       .  A
C2530      H2535   1.084       .  S
C2531      C2532   1.416       .  A
C2532      N2533   1.443       .  S
N2533      O2537   1.263       .  A
N2533      O2538   1.263       .  A
N2536      O2539   1.263       .  A
N2536      O2540   1.263       .  A
C2541      C2542   1.403       .  A
C2541      C2546   1.405       .  A
C2541      H2548   1.084       .  S
C2542      C2543   1.410       .  A
C2543      C2544   1.393       .  A
C2543      N2550   1.441       .  S
C2544      C2545   1.400       .  A
C2544      H2549   1.084       .  S
C2545      C2546   1.417       .  A
C2546      N2547   1.440       .  S
N2547      O2551   1.263       .  A
N2547      O2552   1.262       .  A
N2550      O2553   1.263       .  A
N2550      O2554   1.263       .  A
C2555      C2556   1.401       .  A
C2555      C2560   1.397       .  A
C2555      H2562   1.084       .  S
C2556      C2557   1.416       .  A
C2557      C2558   1.405       .  A
C2557      N2564   1.432       .  S
C2558      C2559   1.404       .  A
C2558      H2563   1.084       .  S
C2559      C2560   1.416       .  A
C2560      N2561   1.436       .  S
N2561      O2565   1.263       .  A
N2561      O2566   1.263       .  A
N2564      O2567   1.262       .  A
N2564      O2568   1.262       .  A
C2569      C2570   1.400       .  A
C2569      C2574   1.397       .  A
C2569      H2576   1.084       .  S
C2570      C2571   1.414       .  A
C2571      C2572   1.400       .  A
C2571      N2578   1.440       .  S
C2572      C2573   1.399       .  A
C2572      H2577   1.084       .  S
C2573      C2574   1.413       .  A
C2574      N2575   1.444       .  S
N2575      O2579   1.263       .  A
N2575      O2580   1.262       .  A
N2578      O2581   1.262       .  A
N2578      O2582   1.263       .  A
C2583      C2584   1.405       .  A
C2583      C2588   1.400       .  A
C2583      H2590   1.084       .  S
C2584      C2585   1.416       .  A
C2585      C2586   1.409       .  A
C2585      N2592   1.435       .  S
C2586      C2587   1.405       .  A
C2586      H2591   1.084       .  S
C2587      C2588   1.415       .  A
C2588      N2589   1.439       .  S
N2589      O2593   1.263       .  A
N2589      O2594   1.263       .  A
N2592      O2595   1.262       .  A
N2592      O2596   1.262       .  A
C2597      C2598   1.402       .  A
C2597      C2602   1.405       .  A
C2597      H2604   1.084       .  S
C2598      C2599   1.415       .  A
C2599      C2600   1.399       .  A
C2599      N2606   1.438       .  S
C2600      C2601   1.402       .  A
C2600      H2605   1.084       .  S
C2601      C2602   1.417       .  A
C2602      N2603   1.438       .  S
N2603      O2607   1.263       .  A
N2603      O2608   1.263       .  A
N2606      O2609   1.263       .  A
N2606      O2610   1.263       .  A
C2611      C2612   1.405       .  A
C2611      C2616   1.397       .  A
C2611      H2618   1.084       .  S
C2612      C2613   1.417       .  A
C2613      C2614   1.409       .  A
C2613      N2620   1.436       .  S
C2614      C2615   1.405       .  A
C2614      H2619   1.084       .  S
C2615      C2616   1.414       .  A
C2616      N2617   1.438       .  S
N2617      O2621   1.263       .  A
N2617      O2622   1.263       .  A
N2620      O2623   1.262       .  A
N2620      O2624   1.263       .  A
C2625      C2626   1.402       .  A
C2625      C2630   1.398       .  A
C2625      H2632   1.084       .  S
C2626      C2627   1.419       .  A
C2627      C2628   1.409       .  A
C2627      N2634   1.437       .  S
C2628      C2629   1.405       .  A
C2628      H2633   1.083       .  S
C2629      C2630   1.418       .  A
C2630      N2631   1.434       .  S
N2631      O2635   1.262       .  A
N2631      O2636   1.263       .  A
N2634      O2637   1.263       .  A
N2634      O2638   1.263       .  A
C2639      C2640   1.403       .  A
C2639      C2644   1.405       .  A
C2639      H2646   1.084       .  S
C2640      C2641   1.415       .  A
C2641      C2642   1.393       .  A
C2641      N2648   1.437       .  S
C2642      C2643   1.400       .  A
C2642      H2647   1.084       .  S
C2643      C2644   1.416       .  A
C2644      N2645   1.437       .  S
N2645      O2649   1.263       .  A
N2645      O2650   1.263       .  A
N2648      O2651   1.263       .  A
N2648      O2652   1.263       .  A
C2653      C2654   1.407       .  A
C2653      C2658   1.410       .  A
C2653      H2660   1.083       .  S
C2654      C2655   1.418       .  A
C2655      C2656   1.401   1_655  A
C2655      N2662   1.432       .  S
C2656      C2657   1.405       .  A
C2656      H2661   1.084       .  S
C2657      C2658   1.420   1_455  A
C2658      N2659   1.434       .  S
N2659      O2663   1.263       .  A
N2659      O2664   1.262       .  A
N2662      O2665   1.262       .  A
N2662      O2666   1.262       .  A
C2667      C2668   1.407       .  A
C2667      C2672   1.413       .  A
C2667      H2674   1.083       .  S
C2668      C2669   1.416       .  A
C2669      C2670   1.395       .  A
C2669      N2676   1.436       .  S
C2670      C2671   1.404       .  A
C2670      H2675   1.084       .  S
C2671      C2672   1.419       .  A
C2672      N2673   1.435       .  S
N2673      O2677   1.263       .  A
N2673      O2678   1.262       .  A
N2676      O2679   1.262       .  A
N2676      O2680   1.263       .  A
C2681      C2682   1.404       .  A
C2681      C2686   1.402       .  A
C2681      H2688   1.084       .  S
C2682      C2683   1.416       .  A
C2683      C2684   1.408       .  A
C2683      N2690   1.439       .  S
C2684      C2685   1.405       .  A
C2684      H2689   1.084       .  S
C2685      C2686   1.414       .  A
C2686      N2687   1.440       .  S
N2687      O2691   1.263       .  A
N2687      O2692   1.263       .  A
N2690      O2693   1.263       .  A
N2690      O2694   1.263       .  A
C2695      C2696   1.403       .  A
C2695      C2700   1.412       .  A
C2695      H2702   1.083       .  S
C2696      C2697   1.412       .  A
C2697      C2698   1.398       .  A
C2697      N2704   1.437       .  S
C2698      C2699   1.399       .  A
C2698      H2703   1.084       .  S
C2699      C2700   1.418       .  A
C2700      N2701   1.443       .  S
N2701      O2705   1.263       .  A
N2701      O2706   1.263       .  A
N2704      O2707   1.261       .  A
N2704      O2708   1.263       .  A
C2709      C2710   1.406       .  A
C2709      C2714   1.396       .  A
C2709      H2716   1.084       .  S
C2710      C2711   1.416       .  A
C2711      C2712   1.410       .  A
C2711      N2718   1.435       .  S
C2712      C2713   1.407       .  A
C2712      H2717   1.084       .  S
C2713      C2714   1.414       .  A
C2714      N2715   1.436       .  S
N2715      O2719   1.263       .  A
N2715      O2720   1.263       .  A
N2718      O2721   1.262       .  A
N2718      O2722   1.262       .  A
C2723      C2724   1.407       .  A
C2723      C2728   1.401       .  A
C2723      H2730   1.083       .  S
C2724      C2725   1.416       .  A
C2725      C2726   1.407       .  A
C2725      N2732   1.433       .  S
C2726      C2727   1.408       .  A
C2726      H2731   1.083       .  S
C2727      C2728   1.415       .  A
C2728      N2729   1.434       .  S
N2729      O2733   1.263       .  A
N2729      O2734   1.262       .  A
N2732      O2735   1.262       .  A
N2732      O2736   1.262       .  A
C2737      C2738   1.408       .  A
C2737      C2742   1.408       .  A
C2737      H2744   1.084       .  S
C2738      C2739   1.414       .  A
C2739      C2740   1.398       .  A
C2739      N2746   1.432       .  S
C2740      C2741   1.406       .  A
C2740      H2745   1.084       .  S
C2741      C2742   1.415       .  A
C2742      N2743   1.432       .  S
N2743      O2747   1.262       .  A
N2743      O2748   1.262       .  A
N2746      O2749   1.262       .  A
N2746      O2750   1.262       .  A
C2751      C2752   1.405       .  A
C2751      C2756   1.399       .  A
C2751      H2758   1.084       .  S
C2752      C2753   1.418       .  A
C2753      C2754   1.412       .  A
C2753      N2760   1.436       .  S
C2754      C2755   1.406       .  A
C2754      H2759   1.084       .  S
C2755      C2756   1.414       .  A
C2756      N2757   1.438       .  S
N2757      O2761   1.263       .  A
N2757      O2762   1.263       .  A
N2760      O2763   1.262       .  A
N2760      O2764   1.263       .  A
C2765      C2766   1.404       .  A
C2765      C2770   1.392       .  A
C2765      H2772   1.084       .  S
C2766      C2767   1.415       .  A
C2767      C2768   1.406       .  A
C2767      N2774   1.433       .  S
C2768      C2769   1.405       .  A
C2768      H2773   1.084       .  S
C2769      C2770   1.410       .  A
C2770      N2771   1.431       .  S
N2771      O2775   1.262       .  A
N2771      O2776   1.262       .  A
N2774      O2777   1.262       .  A
N2774      O2778   1.262       .  A
C2779      C2780   1.408       .  A
C2779      C2784   1.411       .  A
C2779      H2786   1.083       .  S
C2780      C2781   1.412       .  A
C2781      C2782   1.383       .  A
C2781      N2788   1.428       .  S
C2782      C2783   1.390       .  A
C2782      H2787   1.084       .  S
C2783      C2784   1.416       .  A
C2784      N2785   1.441       .  S
N2785      O2789   1.263       .  A
N2785      O2790   1.262       .  A
N2788      O2791   1.263       .  A
N2788      O2792   1.262       .  A
C2793      C2794   1.407       .  A
C2793      C2798   1.403       .  A
C2793      H2800   1.084       .  S
C2794      C2795   1.417       .  A
C2795      C2796   1.411       .  A
C2795      N2802   1.436       .  S
C2796      C2797   1.407       .  A
C2796      H2801   1.083       .  S
C2797      C2798   1.417       .  A
C2798      N2799   1.437       .  S
N2799      O2803   1.263       .  A
N2799      O2804   1.263       .  A
N2802      O2805   1.262       .  A
N2802      O2806   1.263       .  A
C2807      C2808   1.406       .  A
C2807      C2812   1.399       .  A
C2807      H2814   1.084       .  S
C2808      C2809   1.418       .  A
C2809      C2810   1.413       .  A
C2809      N2816   1.432       .  S
C2810      C2811   1.408       .  A
C2810      H2815   1.083       .  S
C2811      C2812   1.417       .  A
C2812      N2813   1.433       .  S
N2813      O2817   1.262       .  A
N2813      O2818   1.263       .  A
N2816      O2819   1.262       .  A
N2816      O2820   1.262       .  A
C2821      C2822   1.403       .  A
C2821      C2826   1.404       .  A
C2821      H2828   1.084       .  S
C2822      C2823   1.413       .  A
C2823      C2824   1.396       .  A
C2823      N2830   1.440       .  S
C2824      C2825   1.400       .  A
C2824      H2829   1.084       .  S
C2825      C2826   1.415       .  A
C2826      N2827   1.439       .  S
N2827      O2831   1.263       .  A
N2827      O2832   1.263       .  A
N2830      O2833   1.263       .  A
N2830      O2834   1.263       .  A
C2835      C2836   1.406   1_554  A
C2835      C2840   1.405       .  A
C2835      H2842   1.084       .  S
C2836      C2837   1.417       .  A
C2837      C2838   1.412   1_556  A
C2837      N2844   1.436       .  S
C2838      C2839   1.408       .  A
C2838      H2843   1.083       .  S
C2839      C2840   1.418       .  A
C2840      N2841   1.435       .  S
N2841      O2845   1.263       .  A
N2841      O2846   1.262       .  A
N2844      O2847   1.263       .  A
N2844      O2848   1.262       .  A
C2849      C2850   1.400       .  A
C2849      C2854   1.401       .  A
C2849      H2856   1.085       .  S
C2850      C2851   1.419       .  A
C2851      C2852   1.411       .  A
C2851      N2858   1.443       .  S
C2852      C2853   1.402       .  A
C2852      H2857   1.084       .  S
C2853      C2854   1.416       .  A
C2854      N2855   1.442       .  S
N2855      O2859   1.263       .  A
N2855      O2860   1.261       .  A
N2858      O2861   1.262       .  A
N2858      O2862   1.263       .  A
C2863      C2864   1.400       .  A
C2863      C2868   1.400       .  A
C2863      H2870   1.084       .  S
C2864      C2865   1.415       .  A
C2865      C2866   1.400       .  A
C2865      N2872   1.445   1_556  S
C2866      C2867   1.398       .  A
C2866      H2871   1.084   1_556  S
C2867      C2868   1.412       .  A
C2868      N2869   1.444       .  S
N2869      O2873   1.263       .  A
N2869      O2874   1.263       .  A
N2872      O2875   1.262   1_554  A
N2872      O2876   1.263       .  A
C2877      C2878   1.408       .  A
C2877      C2882   1.412       .  A
C2877      H2884   1.083       .  S
C2878      C2879   1.417       .  A
C2879      C2880   1.398       .  A
C2879      N2886   1.432       .  S
C2880      C2881   1.405       .  A
C2880      H2885   1.083       .  S
C2881      C2882   1.417       .  A
C2882      N2883   1.432       .  S
N2883      O2887   1.262       .  A
N2883      O2888   1.262       .  A
N2886      O2889   1.262       .  A
N2886      O2890   1.262       .  A
C2891      C2892   1.402       .  A
C2891      C2896   1.406       .  A
C2891      H2898   1.084       .  S
C2892      C2893   1.412       .  A
C2893      C2894   1.396       .  A
C2893      N2900   1.440       .  S
C2894      C2895   1.400       .  A
C2894      H2899   1.084       .  S
C2895      C2896   1.417       .  A
C2896      N2897   1.439       .  S
N2897      O2901   1.263       .  A
N2897      O2902   1.263       .  A
N2900      O2903   1.262       .  A
N2900      O2904   1.263       .  A
C2905      C2906   1.403       .  A
C2905      C2910   1.407       .  A
C2905      H2912   1.084       .  S
C2906      C2907   1.414       .  A
C2907      C2908   1.398       .  A
C2907      N2914   1.441       .  S
C2908      C2909   1.400       .  A
C2908      H2913   1.084       .  S
C2909      C2910   1.416       .  A
C2910      N2911   1.440       .  S
N2911      O2915   1.263       .  A
N2911      O2916   1.263       .  A
N2914      O2917   1.263       .  A
N2914      O2918   1.263       .  A
C2919      C2920   1.407       .  A
C2919      C2924   1.403       .  A
C2919      H2926   1.084       .  S
C2920      C2921   1.416       .  A
C2921      C2922   1.406       .  A
C2921      N2928   1.433       .  S
C2922      C2923   1.406       .  A
C2922      H2927   1.084       .  S
C2923      C2924   1.416       .  A
C2924      N2925   1.436       .  S
N2925      O2929   1.263       .  A
N2925      O2930   1.263       .  A
N2928      O2931   1.262       .  A
N2928      O2932   1.262       .  A
C2933      C2934   1.402       .  A
C2933      C2938   1.412       .  A
C2933      H2940   1.084       .  S
C2934      C2935   1.415       .  A
C2935      C2936   1.402       .  A
C2935      N2942   1.439       .  S
C2936      C2937   1.401       .  A
C2936      H2941   1.084       .  S
C2937      C2938   1.422       .  A
C2938      N2939   1.443       .  S
N2939      O2943   1.263       .  A
N2939      O2944   1.262       .  A
N2942      O2945   1.262       .  A
N2942      O2946   1.263       .  A
C2947      C2948   1.403       .  A
C2947      C2952   1.391       .  A
C2947      H2954   1.082       .  S
C2948      C2949   1.415       .  A
C2949      C2950   1.406       .  A
C2949      N2956   1.437       .  S
C2950      C2951   1.405       .  A
C2950      H2955   1.084       .  S
C2951      C2952   1.410       .  A
C2952      N2953   1.438       .  S
N2953      O2957   1.263       .  A
N2953      O2958   1.263       .  A
N2956      O2959   1.262       .  A
N2956      O2960   1.263       .  A
C2961      C2962   1.399       .  A
C2961      C2966   1.397       .  A
C2961      H2968   1.084       .  S
C2962      C2963   1.420       .  A
C2963      C2964   1.415       .  A
C2963      N2970   1.441       .  S
C2964      C2965   1.404       .  A
C2964      H2969   1.083       .  S
C2965      C2966   1.412       .  A
C2966      N2967   1.435       .  S
N2967      O2971   1.263       .  A
N2967      O2972   1.262       .  A
N2970      O2973   1.263       .  A
N2970      O2974   1.263       .  A
C2975      C2976   1.403       .  A
C2975      C2980   1.409       .  A
C2975      H2982   1.084       .  S
C2976      C2977   1.412       .  A
C2977      C2978   1.399       .  A
C2977      N2984   1.437       .  S
C2978      C2979   1.400       .  A
C2978      H2983   1.084       .  S
C2979      C2980   1.418       .  A
C2980      N2981   1.440       .  S
N2981      O2985   1.263       .  A
N2981      O2986   1.263   1_455  A
N2984      O2987   1.263       .  A
N2984      O2988   1.263       .  A
C2989      C2990   1.409       .  A
C2989      C2994   1.409   1_545  A
C2989      H2996   1.083       .  S
C2990      C2991   1.416       .  A
C2991      C2992   1.402       .  A
C2991      N2998   1.433       .  S
C2992      C2993   1.406   1_545  A
C2992      H2997   1.084       .  S
C2993      C2994   1.417       .  A
C2994      N2995   1.434       .  S
N2995      O2999   1.262       .  A
N2995      O3000   1.263       .  A
N2998      O3001   1.262       .  A
N2998      O3002   1.263       .  A
C3003      C3004   1.408       .  A
C3003      C3008   1.413       .  A
C3003      H3010   1.083       .  S
C3004      C3005   1.417       .  A
C3005      C3006   1.394       .  A
C3005      N3012   1.432       .  S
C3006      C3007   1.404       .  A
C3006      H3011   1.084       .  S
C3007      C3008   1.419       .  A
C3008      N3009   1.434       .  S
N3009      O3013   1.262       .  A
N3009      O3014   1.262       .  A
N3012      O3015   1.262       .  A
N3012      O3016   1.262       .  A
C3017      C3018   1.404       .  A
C3017      C3022   1.395       .  A
C3017      H3024   1.084       .  S
C3018      C3019   1.416       .  A
C3019      C3020   1.405       .  A
C3019      N3026   1.432       .  S
C3020      C3021   1.404       .  A
C3020      H3025   1.084       .  S
C3021      C3022   1.413       .  A
C3022      N3023   1.431       .  S
N3023      O3027   1.262       .  A
N3023      O3028   1.262       .  A
N3026      O3029   1.262       .  A
N3026      O3030   1.262       .  A
C3031      C3032   1.405       .  A
C3031      C3036   1.407       .  A
C3031      H3038   1.084       .  S
C3032      C3033   1.417       .  A
C3033      C3034   1.408       .  A
C3033      N3040   1.438       .  S
C3034      C3035   1.405       .  A
C3034      H3039   1.084       .  S
C3035      C3036   1.416       .  A
C3036      N3037   1.439   1_655  S
N3037      O3041   1.263       .  A
N3037      O3042   1.263       .  A
N3040      O3043   1.263       .  A
N3040      O3044   1.263       .  A
C3045      C3046   1.403       .  A
C3045      C3050   1.404       .  A
C3045      H3052   1.084       .  S
C3046      C3047   1.414       .  A
C3047      C3048   1.400       .  A
C3047      N3054   1.440       .  S
C3048      C3049   1.403       .  A
C3048      H3053   1.084       .  S
C3049      C3050   1.415       .  A
C3050      N3051   1.434       .  S
N3051      O3055   1.263       .  A
N3051      O3056   1.262       .  A
N3054      O3057   1.263       .  A
N3054      O3058   1.263       .  A
C3059      C3060   1.407       .  A
C3059      C3064   1.412       .  A
C3059      H3066   1.084       .  S
C3060      C3061   1.412       .  A
C3061      C3062   1.398       .  A
C3061      N3068   1.431       .  S
C3062      C3063   1.405       .  A
C3062      H3067   1.084       .  S
C3063      C3064   1.417       .  A
C3064      N3065   1.433       .  S
N3065      O3069   1.262       .  A
N3065      O3070   1.262       .  A
N3068      O3071   1.262       .  A
N3068      O3072   1.262       .  A
C3073      C3074   1.402       .  A
C3073      C3078   1.389       .  A
C3073      H3080   1.084       .  S
C3074      C3075   1.416       .  A
C3075      C3076   1.406       .  A
C3075      N3082   1.436       .  S
C3076      C3077   1.403       .  A
C3076      H3081   1.084       .  S
C3077      C3078   1.408       .  A
C3078      N3079   1.435       .  S
N3079      O3083   1.263       .  A
N3079      O3084   1.261       .  A
N3082      O3085   1.262       .  A
N3082      O3086   1.263       .  A
C3087      C3088   1.403       .  A
C3087      C3092   1.404       .  A
C3087      H3094   1.084       .  S
C3088      C3089   1.415       .  A
C3089      C3090   1.403       .  A
C3089      N3096   1.440       .  S
C3090      C3091   1.403       .  A
C3090      H3095   1.084       .  S
C3091      C3092   1.416       .  A
C3092      N3093   1.438       .  S
N3093      O3097   1.263       .  A
N3093      O3098   1.263       .  A
N3096      O3099   1.263       .  A
N3096      O3100   1.263       .  A
C3101      C3102   1.405       .  A
C3101      C3106   1.415       .  A
C3101      H3108   1.083       .  S
C3102      C3103   1.406       .  A
C3103      C3104   1.394       .  A
C3103      N3110   1.434       .  S
C3104      C3105   1.401       .  A
C3104      H3109   1.082       .  S
C3105      C3106   1.420       .  A
C3106      N3107   1.446       .  S
N3107      O3111   1.263       .  A
N3107      O3112   1.262       .  A
N3110      O3113   1.262       .  A
N3110      O3114   1.262       .  A
C3115      C3116   1.403       .  A
C3115      C3120   1.407       .  A
C3115      H3122   1.084       .  S
C3116      C3117   1.413       .  A
C3117      C3118   1.395       .  A
C3117      N3124   1.439       .  S
C3118      C3119   1.400       .  A
C3118      H3123   1.084       .  S
C3119      C3120   1.416       .  A
C3120      N3121   1.439       .  S
N3121      O3125   1.263       .  A
N3121      O3126   1.263       .  A
N3124      O3127   1.262       .  A
N3124      O3128   1.263       .  A
C3129      C3130   1.403       .  A
C3129      C3134   1.403       .  A
C3129      H3136   1.084       .  S
C3130      C3131   1.418       .  A
C3131      C3132   1.412       .  A
C3131      N3138   1.434       .  S
C3132      C3133   1.407       .  A
C3132      H3137   1.084       .  S
C3133      C3134   1.420       .  A
C3134      N3135   1.435       .  S
N3135      O3139   1.263       .  A
N3135      O3140   1.262       .  A
N3138      O3141   1.261       .  A
N3138      O3142   1.263       .  A
C3143      C3144   1.407       .  A
C3143      C3148   1.410       .  A
C3143      H3150   1.084       .  S
C3144      C3145   1.411       .  A
C3145      C3146   1.395       .  A
C3145      N3152   1.430       .  S
C3146      C3147   1.405       .  A
C3146      H3151   1.083       .  S
C3147      C3148   1.417       .  A
C3148      N3149   1.432       .  S
N3149      O3153   1.262       .  A
N3149      O3154   1.262       .  A
N3152      O3155   1.262       .  A
N3152      O3156   1.262       .  A
C3157      C3158   1.405       .  A
C3157      C3162   1.400       .  A
C3157      H3164   1.084       .  S
C3158      C3159   1.415   1_455  A
C3159      C3160   1.409       .  A
C3159      N3166   1.437       .  S
C3160      C3161   1.406   1_655  A
C3160      H3165   1.084       .  S
C3161      C3162   1.413       .  A
C3162      N3163   1.440       .  S
N3163      O3167   1.263       .  A
N3163      O3168   1.263       .  A
N3166      O3169   1.263       .  A
N3166      O3170   1.263       .  A
C3171      C3172   1.405       .  A
C3171      C3176   1.410       .  A
C3171      H3178   1.083       .  S
C3172      C3173   1.413       .  A
C3173      C3174   1.403       .  A
C3173      N3180   1.434       .  S
C3174      C3175   1.403       .  A
C3174      H3179   1.084       .  S
C3175      C3176   1.418       .  A
C3176      N3177   1.445       .  S
N3177      O3181   1.263       .  A
N3177      O3182   1.262   1_655  A
N3180      O3183   1.262       .  A
N3180      O3184   1.263       .  A
C3185      C3186   1.403       .  A
C3185      C3190   1.396       .  A
C3185      H3192   1.084       .  S
C3186      C3187   1.416       .  A
C3187      C3188   1.408       .  A
C3187      N3194   1.437       .  S
C3188      C3189   1.405       .  A
C3188      H3193   1.084       .  S
C3189      C3190   1.412       .  A
C3190      N3191   1.437       .  S
N3191      O3195   1.263       .  A
N3191      O3196   1.262       .  A
N3194      O3197   1.262       .  A
N3194      O3198   1.263       .  A
C3199      C3200   1.406       .  A
C3199      C3204   1.400       .  A
C3199      H3206   1.084       .  S
C3200      C3201   1.416       .  A
C3201      C3202   1.404       .  A
C3201      N3208   1.434       .  S
C3202      C3203   1.407       .  A
C3202      H3207   1.084       .  S
C3203      C3204   1.414       .  A
C3204      N3205   1.431       .  S
N3205      O3209   1.262       .  A
N3205      O3210   1.262       .  A
N3208      O3211   1.262       .  A
N3208      O3212   1.263       .  A
C3213      C3214   1.404       .  A
C3213      C3218   1.406       .  A
C3213      H3220   1.084       .  S
C3214      C3215   1.416       .  A
C3215      C3216   1.406       .  A
C3215      N3222   1.439       .  S
C3216      C3217   1.403       .  A
C3216      H3221   1.084       .  S
C3217      C3218   1.416       .  A
C3218      N3219   1.440       .  S
N3219      O3223   1.263       .  A
N3219      O3224   1.263       .  A
N3222      O3225   1.263       .  A
N3222      O3226   1.263       .  A
C3227      C3228   1.408       .  A
C3227      C3232   1.412       .  A
C3227      H3234   1.083       .  S
C3228      C3229   1.416       .  A
C3229      C3230   1.394       .  A
C3229      N3236   1.435       .  S
C3230      C3231   1.405       .  A
C3230      H3235   1.084       .  S
C3231      C3232   1.418       .  A
C3232      N3233   1.435       .  S
N3233      O3237   1.263       .  A
N3233      O3238   1.262       .  A
N3236      O3239   1.263       .  A
N3236      O3240   1.263       .  A
C3241      C3242   1.406       .  A
C3241      C3246   1.409       .  A
C3241      H3248   1.084       .  S
C3242      C3243   1.414       .  A
C3243      C3244   1.396       .  A
C3243      N3250   1.436       .  S
C3244      C3245   1.406       .  A
C3244      H3249   1.084       .  S
C3245      C3246   1.417       .  A
C3246      N3247   1.435       .  S
N3247      O3251   1.263       .  A
N3247      O3252   1.262       .  A
N3250      O3253   1.263       .  A
N3250      O3254   1.263       .  A
C3255      C3256   1.404       .  A
C3255      C3260   1.401       .  A
C3255      H3262   1.084       .  S
C3256      C3257   1.418       .  A
C3257      C3258   1.406   1_545  A
C3257      N3264   1.435       .  S
C3258      C3259   1.405       .  A
C3258      H3263   1.084       .  S
C3259      C3260   1.418   1_565  A
C3260      N3261   1.435       .  S
N3261      O3265   1.263       .  A
N3261      O3266   1.262   1_545  A
N3264      O3267   1.263       .  A
N3264      O3268   1.262   1_545  A
C3269      C3270   1.402       .  A
C3269      C3274   1.392       .  A
C3269      H3276   1.084       .  S
C3270      C3271   1.413       .  A
C3271      C3272   1.405       .  A
C3271      N3278   1.434       .  S
C3272      C3273   1.407       .  A
C3272      H3277   1.084       .  S
C3273      C3274   1.413       .  A
C3274      N3275   1.432       .  S
N3275      O3279   1.262       .  A
N3275      O3280   1.262       .  A
N3278      O3281   1.262       .  A
N3278      O3282   1.263       .  A
C3283      C3284   1.404       .  A
C3283      C3288   1.398       .  A
C3283      H3290   1.084       .  S
C3284      C3285   1.416       .  A
C3285      C3286   1.410       .  A
C3285      N3292   1.438       .  S
C3286      C3287   1.406       .  A
C3286      H3291   1.084       .  S
C3287      C3288   1.413       .  A
C3288      N3289   1.439       .  S
N3289      O3293   1.263       .  A
N3289      O3294   1.263       .  A
N3292      O3295   1.263       .  A
N3292      O3296   1.263       .  A
C3297      C3298   1.403       .  A
C3297      C3302   1.397       .  A
C3297      H3304   1.084       .  S
C3298      C3299   1.416       .  A
C3299      C3300   1.407       .  A
C3299      N3306   1.436       .  S
C3300      C3301   1.405       .  A
C3300      H3305   1.084       .  S
C3301      C3302   1.415       .  A
C3302      N3303   1.438       .  S
N3303      O3307   1.263       .  A
N3303      O3308   1.263       .  A
N3306      O3309   1.262       .  A
N3306      O3310   1.263       .  A
C3311      C3312   1.406       .  A
C3311      C3316   1.411       .  A
C3311      H3318   1.084       .  S
C3312      C3313   1.417       .  A
C3313      C3314   1.411       .  A
C3313      N3320   1.439       .  S
C3314      C3315   1.406       .  A
C3314      H3319   1.084       .  S
C3315      C3316   1.418       .  A
C3316      N3317   1.439       .  S
N3317      O3321   1.263       .  A
N3317      O3322   1.263   1_655  A
N3320      O3323   1.263       .  A
N3320      O3324   1.263       .  A
C3325      C3326   1.405       .  A
C3325      C3330   1.407       .  A
C3325      H3332   1.084       .  S
C3326      C3327   1.415       .  A
C3327      C3328   1.405       .  A
C3327      N3334   1.432       .  S
C3328      C3329   1.405       .  A
C3328      H3333   1.084       .  S
C3329      C3330   1.415       .  A
C3330      N3331   1.434       .  S
N3331      O3335   1.263       .  A
N3331      O3336   1.262       .  A
N3334      O3337   1.262       .  A
N3334      O3338   1.262       .  A
C3339      C3340   1.407       .  A
C3339      C3344   1.409       .  A
C3339      H3346   1.083       .  S
C3340      C3341   1.417       .  A
C3341      C3342   1.395       .  A
C3341      N3348   1.432       .  S
C3342      C3343   1.402       .  A
C3342      H3347   1.084       .  S
C3343      C3344   1.418       .  A
C3344      N3345   1.435       .  S
N3345      O3349   1.262   1_455  A
N3345      O3350   1.262       .  A
N3348      O3351   1.262       .  A
N3348      O3352   1.263       .  A
C3353      C3354   1.406       .  A
C3353      C3358   1.401       .  A
C3353      H3360   1.084       .  S
C3354      C3355   1.416       .  A
C3355      C3356   1.410       .  A
C3355      N3362   1.438       .  S
C3356      C3357   1.406       .  A
C3356      H3361   1.084       .  S
C3357      C3358   1.413       .  A
C3358      N3359   1.440       .  S
N3359      O3363   1.263       .  A
N3359      O3364   1.263       .  A
N3362      O3365   1.263       .  A
N3362      O3366   1.263       .  A
C3367      C3368   1.399       .  A
C3367      C3372   1.398       .  A
C3367      H3374   1.085       .  S
C3368      C3369   1.421       .  A
C3369      C3370   1.414       .  A
C3369      N3376   1.447       .  S
C3370      C3371   1.403       .  A
C3370      H3375   1.083       .  S
C3371      C3372   1.410       .  A
C3372      N3373   1.438       .  S
N3373      O3377   1.263       .  A
N3373      O3378   1.262       .  A
N3376      O3379   1.262       .  A
N3376      O3380   1.263       .  A
C3381      C3382   1.406       .  A
C3381      C3386   1.400       .  A
C3381      H3388   1.084       .  S
C3382      C3383   1.418       .  A
C3383      C3384   1.415       .  A
C3383      N3390   1.434       .  S
C3384      C3385   1.409       .  A
C3384      H3389   1.084       .  S
C3385      C3386   1.413       .  A
C3386      N3387   1.431       .  S
N3387      O3391   1.262       .  A
N3387      O3392   1.262       .  A
N3390      O3393   1.261       .  A
N3390      O3394   1.263       .  A
C3395      C3396   1.401       .  A
C3395      C3400   1.404       .  A
C3395      H3402   1.084       .  S
C3396      C3397   1.412       .  A
C3397      C3398   1.396       .  A
C3397      N3404   1.442       .  S
C3398      C3399   1.398       .  A
C3398      H3403   1.085       .  S
C3399      C3400   1.416       .  A
C3400      N3401   1.444       .  S
N3401      O3405   1.263       .  A
N3401      O3406   1.262       .  A
N3404      O3407   1.262       .  A
N3404      O3408   1.263       .  A
C3409      C3410   1.403       .  A
C3409      C3414   1.396   1_556  A
C3409      H3416   1.084       .  S
C3410      C3411   1.418   1_556  A
C3411      C3412   1.408       .  A
C3411      N3418   1.435       .  S
C3412      C3413   1.406       .  A
C3412      H3417   1.083       .  S
C3413      C3414   1.416       .  A
C3414      N3415   1.432       .  S
N3415      O3419   1.262   1_554  A
N3415      O3420   1.262       .  A
N3418      O3421   1.262       .  A
N3418      O3422   1.263       .  A
C3423      C3424   1.403       .  A
C3423      C3428   1.405       .  A
C3423      H3430   1.084       .  S
C3424      C3425   1.415       .  A
C3425      C3426   1.397       .  A
C3425      N3432   1.440       .  S
C3426      C3427   1.400       .  A
C3426      H3431   1.084       .  S
C3427      C3428   1.415       .  A
C3428      N3429   1.439       .  S
N3429      O3433   1.263       .  A
N3429      O3434   1.263       .  A
N3432      O3435   1.262       .  A
N3432      O3436   1.263       .  A
C3437      C3438   1.401       .  A
C3437      C3442   1.402       .  A
C3437      H3444   1.084       .  S
C3438      C3439   1.417       .  A
C3439      C3440   1.407       .  A
C3439      N3446   1.446       .  S
C3440      C3441   1.401       .  A
C3440      H3445   1.084       .  S
C3441      C3442   1.415       .  A
C3442      N3443   1.444       .  S
N3443      O3447   1.263       .  A
N3443      O3448   1.262       .  A
N3446      O3449   1.261       .  A
N3446      O3450   1.263       .  A
C3451      C3452   1.408       .  A
C3451      C3456   1.412       .  A
C3451      H3458   1.083       .  S
C3452      C3453   1.414       .  A
C3453      C3454   1.399       .  A
C3453      N3460   1.439       .  S
C3454      C3455   1.404       .  A
C3454      H3459   1.084       .  S
C3455      C3456   1.416       .  A
C3456      N3457   1.439       .  S
N3457      O3461   1.263       .  A
N3457      O3462   1.263       .  A
N3460      O3463   1.263       .  A
N3460      O3464   1.263       .  A
C3465      C3466   1.402       .  A
C3465      C3470   1.404       .  A
C3465      H3472   1.084       .  S
C3466      C3467   1.411       .  A
C3467      C3468   1.390       .  A
C3467      N3474   1.435       .  S
C3468      C3469   1.403       .  A
C3468      H3473   1.084       .  S
C3469      C3470   1.418       .  A
C3470      N3471   1.433       .  S
N3471      O3475   1.262       .  A
N3471      O3476   1.262       .  A
N3474      O3477   1.262       .  A
N3474      O3478   1.263       .  A
C3479      C3480   1.406       .  A
C3479      C3484   1.411       .  A
C3479      H3486   1.083       .  S
C3480      C3481   1.419       .  A
C3481      C3482   1.401       .  A
C3481      N3488   1.435       .  S
C3482      C3483   1.403       .  A
C3482      H3487   1.084       .  S
C3483      C3484   1.419       .  A
C3484      N3485   1.436       .  S
N3485      O3489   1.263       .  A
N3485      O3490   1.263       .  A
N3488      O3491   1.262       .  A
N3488      O3492   1.262       .  A
C3493      C3494   1.409       .  A
C3493      C3498   1.410   1_565  A
C3493      H3500   1.083       .  S
C3494      C3495   1.416       .  A
C3495      C3496   1.403       .  A
C3495      N3502   1.433       .  S
C3496      C3497   1.407   1_565  A
C3496      H3501   1.084       .  S
C3497      C3498   1.418       .  A
C3498      N3499   1.434       .  S
N3499      O3503   1.263       .  A
N3499      O3504   1.262       .  A
N3502      O3505   1.262       .  A
N3502      O3506   1.262       .  A
C3507      C3508   1.398       .  A
C3507      C3512   1.400       .  A
C3507      H3514   1.083       .  S
C3508      C3509   1.416       .  A
C3509      C3510   1.405       .  A
C3509      N3516   1.443       .  S
C3510      C3511   1.403       .  A
C3510      H3515   1.084       .  S
C3511      C3512   1.414       .  A
C3512      N3513   1.437       .  S
N3513      O3517   1.263       .  A
N3513      O3518   1.263       .  A
N3516      O3519   1.262       .  A
N3516      O3520   1.263       .  A
C3521      C3522   1.406       .  A
C3521      C3526   1.400       .  A
C3521      H3528   1.084       .  S
C3522      C3523   1.414       .  A
C3523      C3524   1.405       .  A
C3523      N3530   1.433       .  S
C3524      C3525   1.408       .  A
C3524      H3529   1.083       .  S
C3525      C3526   1.415       .  A
C3526      N3527   1.432       .  S
N3527      O3531   1.262       .  A
N3527      O3532   1.262       .  A
N3530      O3533   1.262       .  A
N3530      O3534   1.262       .  A
C3535      C3536   1.405       .  A
C3535      C3540   1.397       .  A
C3535      H3542   1.084       .  S
C3536      C3537   1.417       .  A
C3537      C3538   1.412       .  A
C3537      N3544   1.432       .  S
C3538      C3539   1.408       .  A
C3538      H3543   1.083       .  S
C3539      C3540   1.415       .  A
C3540      N3541   1.431       .  S
N3541      O3545   1.262       .  A
N3541      O3546   1.262       .  A
N3544      O3547   1.262       .  A
N3544      O3548   1.262       .  A
C3549      C3550   1.405       .  A
C3549      C3554   1.407       .  A
C3549      H3556   1.084       .  S
C3550      C3551   1.412       .  A
C3551      C3552   1.390       .  A
C3551      N3558   1.437       .  S
C3552      C3553   1.401       .  A
C3552      H3557   1.084       .  S
C3553      C3554   1.416       .  A
C3554      N3555   1.438       .  S
N3555      O3559   1.263       .  A
N3555      O3560   1.262       .  A
N3558      O3561   1.263       .  A
N3558      O3562   1.263       .  A
C3563      C3564   1.402       .  A
C3563      C3568   1.407       .  A
C3563      H3570   1.084       .  S
C3564      C3565   1.413       .  A
C3565      C3566   1.404       .  A
C3565      N3572   1.443       .  S
C3566      C3567   1.401       .  A
C3566      H3571   1.084       .  S
C3567      C3568   1.418       .  A
C3568      N3569   1.445       .  S
N3569      O3573   1.263       .  A
N3569      O3574   1.262       .  A
N3572      O3575   1.262       .  A
N3572      O3576   1.263       .  A
C3577      C3578   1.404       .  A
C3577      C3582   1.406       .  A
C3577      H3584   1.084       .  S
C3578      C3579   1.417       .  A
C3579      C3580   1.403       .  A
C3579      N3586   1.438       .  S
C3580      C3581   1.404       .  A
C3580      H3585   1.084       .  S
C3581      C3582   1.418       .  A
C3582      N3583   1.436       .  S
N3583      O3587   1.263       .  A
N3583      O3588   1.263       .  A
N3586      O3589   1.263       .  A
N3586      O3590   1.263       .  A
C3591      C3592   1.405       .  A
C3591      C3596   1.400       .  A
C3591      H3598   1.084       .  S
C3592      C3593   1.416       .  A
C3593      C3594   1.410       .  A
C3593      N3600   1.438       .  S
C3594      C3595   1.406       .  A
C3594      H3599   1.084       .  S
C3595      C3596   1.412       .  A
C3596      N3597   1.440       .  S
N3597      O3601   1.263       .  A
N3597      O3602   1.263       .  A
N3600      O3603   1.263       .  A
N3600      O3604   1.263       .  A
C3605      C3606   1.400       .  A
C3605      C3610   1.402       .  A
C3605      H3612   1.084       .  S
C3606      C3607   1.415       .  A
C3607      C3608   1.401       .  A
C3607      N3614   1.446       .  S
C3608      C3609   1.401       .  A
C3608      H3613   1.084       .  S
C3609      C3610   1.413       .  A
C3610      N3611   1.443       .  S
N3611      O3615   1.263       .  A
N3611      O3616   1.262       .  A
N3614      O3617   1.262       .  A
N3614      O3618   1.263       .  A
C3619      C3620   1.407       .  A
C3619      C3624   1.402   1_545  A
C3619      H3626   1.084       .  S
C3620      C3621   1.415       .  A
C3621      C3622   1.405   1_545  A
C3621      N3628   1.433       .  S
C3622      C3623   1.407       .  A
C3622      H3627   1.083       .  S
C3623      C3624   1.415       .  A
C3624      N3625   1.433       .  S
N3625      O3629   1.262       .  A
N3625      O3630   1.262       .  A
N3628      O3631   1.262       .  A
N3628      O3632   1.263       .  A
C3633      C3634   1.400       .  A
C3633      C3638   1.401       .  A
C3633      H3640   1.084       .  S
C3634      C3635   1.415       .  A
C3635      C3636   1.400       .  A
C3635      N3642   1.441       .  S
C3636      C3637   1.399       .  A
C3636      H3641   1.084       .  S
C3637      C3638   1.417       .  A
C3638      N3639   1.447       .  S
N3639      O3643   1.263   1_545  A
N3639      O3644   1.261       .  A
N3642      O3645   1.261       .  A
N3642      O3646   1.263       .  A
C3647      C3648   1.404       .  A
C3647      C3652   1.405       .  A
C3647      H3654   1.084       .  S
C3648      C3649   1.414       .  A
C3649      C3650   1.397       .  A
C3649      N3656   1.430       .  S
C3650      C3651   1.404       .  A
C3650      H3655   1.084       .  S
C3651      C3652   1.419       .  A
C3652      N3653   1.434       .  S
N3653      O3657   1.262       .  A
N3653      O3658   1.262       .  A
N3656      O3659   1.262       .  A
N3656      O3660   1.262       .  A
C3661      C3662   1.406       .  A
C3661      C3666   1.409       .  A
C3661      H3668   1.083       .  S
C3662      C3663   1.414       .  A
C3663      C3664   1.398       .  A
C3663      N3670   1.436       .  S
C3664      C3665   1.405       .  A
C3664      H3669   1.084       .  S
C3665      C3666   1.417       .  A
C3666      N3667   1.437       .  S
N3667      O3671   1.263       .  A
N3667      O3672   1.262       .  A
N3670      O3673   1.263       .  A
N3670      O3674   1.263       .  A
C3675      C3676   1.403       .  A
C3675      C3680   1.396       .  A
C3675      H3682   1.084       .  S
C3676      C3677   1.418       .  A
C3677      C3678   1.410       .  A
C3677      N3684   1.435       .  S
C3678      C3679   1.406       .  A
C3678      H3683   1.083       .  S
C3679      C3680   1.416       .  A
C3680      N3681   1.436       .  S
N3681      O3685   1.263       .  A
N3681      O3686   1.262       .  A
N3684      O3687   1.262       .  A
N3684      O3688   1.262       .  A
C3689      C3690   1.404       .  A
C3689      C3694   1.394       .  A
C3689      H3696   1.084       .  S
C3690      C3691   1.416       .  A
C3691      C3692   1.407       .  A
C3691      N3698   1.436       .  S
C3692      C3693   1.406       .  A
C3692      H3697   1.084       .  S
C3693      C3694   1.413       .  A
C3694      N3695   1.437       .  S
N3695      O3699   1.263       .  A
N3695      O3700   1.263       .  A
N3698      O3701   1.262       .  A
N3698      O3702   1.263       .  A
C3703      C3704   1.402       .  A
C3703      C3708   1.400       .  A
C3703      H3710   1.084       .  S
C3704      C3705   1.414       .  A
C3705      C3706   1.404       .  A
C3705      N3712   1.435       .  S
C3706      C3707   1.404       .  A
C3706      H3711   1.084       .  S
C3707      C3708   1.413       .  A
C3708      N3709   1.434       .  S
N3709      O3713   1.263       .  A
N3709      O3714   1.262       .  A
N3712      O3715   1.262       .  A
N3712      O3716   1.262       .  A
C3717      C3718   1.403       .  A
C3717      C3722   1.388       .  A
C3717      H3724   1.084       .  S
C3718      C3719   1.415       .  A
C3719      C3720   1.404       .  A
C3719      N3726   1.433       .  S
C3720      C3721   1.404       .  A
C3720      H3725   1.084       .  S
C3721      C3722   1.411       .  A
C3722      N3723   1.437       .  S
N3723      O3727   1.263       .  A
N3723      O3728   1.263       .  A
N3726      O3729   1.262       .  A
N3726      O3730   1.262       .  A
C3731      C3732   1.405       .  A
C3731      C3736   1.409       .  A
C3731      H3738   1.084       .  S
C3732      C3733   1.412       .  A
C3733      C3734   1.397       .  A
C3733      N3740   1.440       .  S
C3734      C3735   1.402       .  A
C3734      H3739   1.084       .  S
C3735      C3736   1.415       .  A
C3736      N3737   1.441       .  S
N3737      O3741   1.263       .  A
N3737      O3742   1.263       .  A
N3740      O3743   1.263       .  A
N3740      O3744   1.263       .  A
C3745      C3746   1.402       .  A
C3745      C3750   1.413       .  A
C3745      H3752   1.084       .  S
C3746      C3747   1.413       .  A
C3747      C3748   1.398       .  A
C3747      N3754   1.435       .  S
C3748      C3749   1.399       .  A
C3748      H3753   1.085       .  S
C3749      C3750   1.423       .  A
C3750      N3751   1.445       .  S
N3751      O3755   1.263       .  A
N3751      O3756   1.261       .  A
N3754      O3757   1.262       .  A
N3754      O3758   1.262       .  A
C3759      C3760   1.403       .  A
C3759      C3764   1.389       .  A
C3759      H3766   1.083       .  S
C3760      C3761   1.414       .  A
C3761      C3762   1.408       .  A
C3761      N3768   1.433       .  S
C3762      C3763   1.408       .  A
C3762      H3767   1.083       .  S
C3763      C3764   1.413       .  A
C3764      N3765   1.433       .  S
N3765      O3769   1.262       .  A
N3765      O3770   1.262       .  A
N3768      O3771   1.262       .  A
N3768      O3772   1.262       .  A
C3773      C3774   1.404       .  A
C3773      C3778   1.408       .  A
C3773      H3780   1.083       .  S
C3774      C3775   1.412       .  A
C3775      C3776   1.397       .  A
C3775      N3782   1.432       .  S
C3776      C3777   1.401       .  A
C3776      H3781   1.084       .  S
C3777      C3778   1.417       .  A
C3778      N3779   1.445       .  S
N3779      O3783   1.263       .  A
N3779      O3784   1.263       .  A
N3782      O3785   1.262       .  A
N3782      O3786   1.262       .  A
C3787      C3788   1.399       .  A
C3787      C3792   1.399       .  A
C3787      H3794   1.084       .  S
C3788      C3789   1.415       .  A
C3789      C3790   1.402       .  A
C3789      N3796   1.445       .  S
C3790      C3791   1.400       .  A
C3790      H3795   1.084       .  S
C3791      C3792   1.410       .  A
C3792      N3793   1.443       .  S
N3793      O3797   1.263       .  A
N3793      O3798   1.263       .  A
N3796      O3799   1.263       .  A
N3796      O3800   1.263       .  A
C3801      C3802   1.405       .  A
C3801      C3806   1.411   1_556  A
C3801      H3808   1.083       .  S
C3802      C3803   1.418   1_556  A
C3803      C3804   1.402       .  A
C3803      N3810   1.438       .  S
C3804      C3805   1.403       .  A
C3804      H3809   1.084       .  S
C3805      C3806   1.417       .  A
C3806      N3807   1.438   1_554  S
N3807      O3811   1.263       .  A
N3807      O3812   1.263   1_556  A
N3810      O3813   1.263   1_554  A
N3810      O3814   1.263       .  A
C3815      C3816   1.408       .  A
C3815      C3820   1.413       .  A
C3815      H3822   1.083       .  S
C3816      C3817   1.419       .  A
C3817      C3818   1.399       .  A
C3817      N3824   1.435       .  S
C3818      C3819   1.405       .  A
C3818      H3823   1.084       .  S
C3819      C3820   1.417       .  A
C3820      N3821   1.435       .  S
N3821      O3825   1.262       .  A
N3821      O3826   1.262       .  A
N3824      O3827   1.263       .  A
N3824      O3828   1.263       .  A
C3829      C3830   1.400       .  A
C3829      C3834   1.403       .  A
C3829      H3836   1.084       .  S
C3830      C3831   1.409       .  A
C3831      C3832   1.390       .  A
C3831      N3838   1.432       .  S
C3832      C3833   1.402       .  A
C3832      H3837   1.084       .  S
C3833      C3834   1.417       .  A
C3834      N3835   1.433   1_556  S
N3835      O3839   1.262       .  A
N3835      O3840   1.262       .  A
N3838      O3841   1.262       .  A
N3838      O3842   1.262       .  A
C3843      C3844   1.403       .  A
C3843      C3848   1.404       .  A
C3843      H3850   1.084       .  S
C3844      C3845   1.415       .  A
C3845      C3846   1.393       .  A
C3845      N3852   1.437       .  S
C3846      C3847   1.401       .  A
C3846      H3851   1.084       .  S
C3847      C3848   1.416       .  A
C3848      N3849   1.436       .  S
N3849      O3853   1.263       .  A
N3849      O3854   1.262       .  A
N3852      O3855   1.263       .  A
N3852      O3856   1.263       .  A
C3857      C3858   1.408       .  A
C3857      C3862   1.408       .  A
C3857      H3864   1.083       .  S
C3858      C3859   1.417       .  A
C3859      C3860   1.401       .  A
C3859      N3866   1.434       .  S
C3860      C3861   1.406       .  A
C3860      H3865   1.084       .  S
C3861      C3862   1.417       .  A
C3862      N3863   1.433       .  S
N3863      O3867   1.263       .  A
N3863      O3868   1.262       .  A
N3866      O3869   1.263       .  A
N3866      O3870   1.262       .  A
C3871      C3872   1.406       .  A
C3871      C3876   1.418       .  A
C3871      H3878   1.083       .  S
C3872      C3873   1.410       .  A
C3873      C3874   1.390       .  A
C3873      N3880   1.426       .  S
C3874      C3875   1.391       .  A
C3874      H3879   1.086       .  S
C3875      C3876   1.422       .  A
C3876      N3877   1.444       .  S
N3877      O3881   1.263       .  A
N3877      O3882   1.262       .  A
N3880      O3883   1.262       .  A
N3880      O3884   1.262       .  A
C3885      C3886   1.408       .  A
C3885      C3890   1.414       .  A
C3885      H3892   1.083       .  S
C3886      C3887   1.413       .  A
C3887      C3888   1.386       .  A
C3887      N3894   1.427       .  S
C3888      C3889   1.391       .  A
C3888      H3893   1.086       .  S
C3889      C3890   1.419       .  A
C3890      N3891   1.443       .  S
N3891      O3895   1.263       .  A
N3891      O3896   1.261       .  A
N3894      O3897   1.262       .  A
N3894      O3898   1.263       .  A
C3899      C3900   1.406       .  A
C3899      C3904   1.409       .  A
C3899      H3906   1.084       .  S
C3900      C3901   1.417       .  A
C3901      C3902   1.400       .  A
C3901      N3908   1.436       .  S
C3902      C3903   1.403       .  A
C3902      H3907   1.084       .  S
C3903      C3904   1.419       .  A
C3904      N3905   1.435       .  S
N3905      O3909   1.263       .  A
N3905      O3910   1.262       .  A
N3908      O3911   1.262       .  A
N3908      O3912   1.263       .  A
C3913      C3914   1.406       .  A
C3913      C3918   1.409       .  A
C3913      H3920   1.084       .  S
C3914      C3915   1.417       .  A
C3915      C3916   1.406       .  A
C3915      N3922   1.438       .  S
C3916      C3917   1.406       .  A
C3916      H3921   1.084       .  S
C3917      C3918   1.418       .  A
C3918      N3919   1.436       .  S
N3919      O3923   1.262       .  A
N3919      O3924   1.263       .  A
N3922      O3925   1.263       .  A
N3922      O3926   1.263       .  A
C3927      C3928   1.404       .  A
C3927      C3932   1.406       .  A
C3927      H3934   1.084       .  S
C3928      C3929   1.419       .  A
C3929      C3930   1.397       .  A
C3929      N3936   1.440       .  S
C3930      C3931   1.402       .  A
C3930      H3935   1.084       .  S
C3931      C3932   1.415       .  A
C3932      N3933   1.437       .  S
N3933      O3937   1.262       .  A
N3933      O3938   1.263       .  A
N3936      O3939   1.261       .  A
N3936      O3940   1.263       .  A
C3941      C3942   1.407       .  A
C3941      C3946   1.407       .  A
C3941      H3948   1.084       .  S
C3942      C3943   1.415       .  A
C3943      C3944   1.399       .  A
C3943      N3950   1.433       .  S
C3944      C3945   1.407       .  A
C3944      H3949   1.084       .  S
C3945      C3946   1.415       .  A
C3946      N3947   1.432       .  S
N3947      O3951   1.262       .  A
N3947      O3952   1.262       .  A
N3950      O3953   1.262       .  A
N3950      O3954   1.262       .  A
C3955      C3956   1.399       .  A
C3955      C3960   1.398       .  A
C3955      H3962   1.085       .  S
C3956      C3957   1.417       .  A
C3957      C3958   1.409       .  A
C3957      N3964   1.436       .  S
C3958      C3959   1.405       .  A
C3958      H3963   1.084       .  S
C3959      C3960   1.419       .  A
C3960      N3961   1.437       .  S
N3961      O3965   1.263       .  A
N3961      O3966   1.262       .  A
N3964      O3967   1.261       .  A
N3964      O3968   1.263       .  A
C3969      C3970   1.405       .  A
C3969      C3974   1.390       .  A
C3969      H3976   1.084       .  S
C3970      C3971   1.415       .  A
C3971      C3972   1.407       .  A
C3971      N3978   1.433       .  S
C3972      C3973   1.408       .  A
C3972      H3977   1.083       .  S
C3973      C3974   1.413       .  A
C3974      N3975   1.433       .  S
N3975      O3979   1.262       .  A
N3975      O3980   1.262       .  A
N3978      O3981   1.262       .  A
N3978      O3982   1.262       .  A
C3983      C3984   1.403       .  A
C3983      C3988   1.406       .  A
C3983      H3990   1.084       .  S
C3984      C3985   1.415       .  A
C3985      C3986   1.400       .  A
C3985      N3992   1.437       .  S
C3986      C3987   1.402       .  A
C3986      H3991   1.084       .  S
C3987      C3988   1.418       .  A
C3988      N3989   1.436       .  S
N3989      O3993   1.263       .  A
N3989      O3994   1.263       .  A
N3992      O3995   1.262       .  A
N3992      O3996   1.263       .  A
C3997      C3998   1.401       .  A
C3997      C4002   1.404       .  A
C3997      H4004   1.084       .  S
C3998      C3999   1.415       .  A
C3999      C4000   1.404       .  A
C3999      N4006   1.441       .  S
C4000      C4001   1.400       .  A
C4000      H4005   1.084       .  S
C4001      C4002   1.413       .  A
C4002      N4003   1.438       .  S
N4003      O4007   1.263       .  A
N4003      O4008   1.262       .  A
N4006      O4009   1.263       .  A
N4006      O4010   1.263       .  A
C4011      C4012   1.402       .  A
C4011      C4016   1.398       .  A
C4011      H4018   1.084       .  S
C4012      C4013   1.414       .  A
C4013      C4014   1.402       .  A
C4013      N4020   1.437       .  S
C4014      C4015   1.404       .  A
C4014      H4019   1.084       .  S
C4015      C4016   1.414       .  A
C4016      N4017   1.438       .  S
N4017      O4021   1.263       .  A
N4017      O4022   1.263       .  A
N4020      O4023   1.263       .  A
N4020      O4024   1.263       .  A
C4025      C4026   1.400       .  A
C4025      C4030   1.400       .  A
C4025      H4032   1.084       .  S
C4026      C4027   1.415       .  A
C4027      C4028   1.405       .  A
C4027      N4034   1.441       .  S
C4028      C4029   1.402       .  A
C4028      H4033   1.084       .  S
C4029      C4030   1.415       .  A
C4030      N4031   1.438       .  S
N4031      O4035   1.262       .  A
N4031      O4036   1.262       .  A
N4034      O4037   1.263       .  A
N4034      O4038   1.263       .  A
C4039      C4040   1.406       .  A
C4039      C4044   1.409       .  A
C4039      H4046   1.083       .  S
C4040      C4041   1.416       .  A
C4041      C4042   1.393       .  A
C4041      N4048   1.432       .  S
C4042      C4043   1.404       .  A
C4042      H4047   1.084       .  S
C4043      C4044   1.417       .  A
C4044      N4045   1.435       .  S
N4045      O4049   1.262       .  A
N4045      O4050   1.263       .  A
N4048      O4051   1.261       .  A
N4048      O4052   1.262       .  A
C4053      C4054   1.401       .  A
C4053      C4058   1.403       .  A
C4053      H4060   1.084       .  S
C4054      C4055   1.413       .  A
C4055      C4056   1.399       .  A
C4055      N4062   1.441       .  S
C4056      C4057   1.399       .  A
C4056      H4061   1.084       .  S
C4057      C4058   1.415       .  A
C4058      N4059   1.445       .  S
N4059      O4063   1.263       .  A
N4059      O4064   1.263       .  A
N4062      O4065   1.262       .  A
N4062      O4066   1.263       .  A
C4067      C4068   1.407       .  A
C4067      C4072   1.409       .  A
C4067      H4074   1.083       .  S
C4068      C4069   1.413       .  A
C4069      C4070   1.396       .  A
C4069      N4076   1.436       .  S
C4070      C4071   1.405       .  A
C4070      H4075   1.084       .  S
C4071      C4072   1.415       .  A
C4072      N4073   1.438       .  S
N4073      O4077   1.263       .  A
N4073      O4078   1.263       .  A
N4076      O4079   1.262       .  A
N4076      O4080   1.263       .  A
C4081      C4082   1.405       .  A
C4081      C4086   1.393       .  A
C4081      H4088   1.084       .  S
C4082      C4083   1.415       .  A
C4083      C4084   1.404       .  A
C4083      N4090   1.435       .  S
C4084      C4085   1.405       .  A
C4084      H4089   1.084       .  S
C4085      C4086   1.412       .  A
C4086      N4087   1.437       .  S
N4087      O4091   1.263       .  A
N4087      O4092   1.262       .  A
N4090      O4093   1.262       .  A
N4090      O4094   1.263       .  A
C4095      C4096   1.405       .  A
C4095      C4100   1.411   1_556  A
C4095      H4102   1.083       .  S
C4096      C4097   1.419   1_556  A
C4097      C4098   1.400       .  A
C4097      N4104   1.439       .  S
C4098      C4099   1.401       .  A
C4098      H4103   1.084       .  S
C4099      C4100   1.417       .  A
C4100      N4101   1.440       .  S
N4101      O4105   1.263   1_554  A
N4101      O4106   1.262       .  A
N4104      O4107   1.261   1_554  A
N4104      O4108   1.263       .  A
C4109      C4110   1.406       .  A
C4109      C4114   1.411       .  A
C4109      H4116   1.084       .  S
C4110      C4111   1.413       .  A
C4111      C4112   1.403       .  A
C4111      N4118   1.441       .  S
C4112      C4113   1.404       .  A
C4112      H4117   1.084       .  S
C4113      C4114   1.416       .  A
C4114      N4115   1.441       .  S
N4115      O4119   1.263       .  A
N4115      O4120   1.262       .  A
N4118      O4121   1.263       .  A
N4118      O4122   1.263       .  A
C4123      C4124   1.404       .  A
C4123      C4128   1.405       .  A
C4123      H4130   1.084       .  S
C4124      C4125   1.417       .  A
C4125      C4126   1.392       .  A
C4125      N4132   1.434       .  S
C4126      C4127   1.400       .  A
C4126      H4131   1.084       .  S
C4127      C4128   1.416       .  A
C4128      N4129   1.437       .  S
N4129      O4133   1.263       .  A
N4129      O4134   1.263       .  A
N4132      O4135   1.263       .  A
N4132      O4136   1.262       .  A
C4137      C4138   1.404       .  A
C4137      C4142   1.405   1_565  A
C4137      H4144   1.084       .  S
C4138      C4139   1.415       .  A
C4139      C4140   1.407   1_565  A
C4139      N4146   1.441       .  S
C4140      C4141   1.404       .  A
C4140      H4145   1.084       .  S
C4141      C4142   1.416       .  A
C4142      N4143   1.440       .  S
N4143      O4147   1.263       .  A
N4143      O4148   1.263       .  A
N4146      O4149   1.263       .  A
N4146      O4150   1.263   1_565  A
C4151      C4152   1.403       .  A
C4151      C4156   1.399       .  A
C4151      H4158   1.084       .  S
C4152      C4153   1.416       .  A
C4153      C4154   1.407       .  A
C4153      N4160   1.431       .  S
C4154      C4155   1.406       .  A
C4154      H4159   1.084       .  S
C4155      C4156   1.419       .  A
C4156      N4157   1.434       .  S
N4157      O4161   1.263       .  A
N4157      O4162   1.262       .  A
N4160      O4163   1.262       .  A
N4160      O4164   1.262       .  A
C4165      C4166   1.403       .  A
C4165      C4170   1.394       .  A
C4165      H4172   1.084       .  S
C4166      C4167   1.415       .  A
C4167      C4168   1.406       .  A
C4167      N4174   1.434       .  S
C4168      C4169   1.406       .  A
C4168      H4173   1.084       .  S
C4169      C4170   1.414       .  A
C4170      N4171   1.432       .  S
N4171      O4175   1.262   1_565  A
N4171      O4176   1.262       .  A
N4174      O4177   1.262       .  A
N4174      O4178   1.263       .  A
C4179      C4180   1.404       .  A
C4179      C4184   1.410       .  A
C4179      H4186   1.084       .  S
C4180      C4181   1.413       .  A
C4181      C4182   1.402       .  A
C4181      N4188   1.440       .  S
C4182      C4183   1.403       .  A
C4182      H4187   1.085       .  S
C4183      C4184   1.419       .  A
C4184      N4185   1.443       .  S
N4185      O4189   1.263       .  A
N4185      O4190   1.261       .  A
N4188      O4191   1.262       .  A
N4188      O4192   1.263       .  A
C4193      C4194   1.403       .  A
C4193      C4198   1.395       .  A
C4193      H4200   1.084       .  S
C4194      C4195   1.415       .  A
C4195      C4196   1.406       .  A
C4195      N4202   1.437       .  S
C4196      C4197   1.405       .  A
C4196      H4201   1.084       .  S
C4197      C4198   1.412       .  A
C4198      N4199   1.439       .  S
N4199      O4203   1.263       .  A
N4199      O4204   1.263       .  A
N4202      O4205   1.263       .  A
N4202      O4206   1.263       .  A
C4207      C4208   1.405       .  A
C4207      C4212   1.410       .  A
C4207      H4214   1.084       .  S
C4208      C4209   1.417       .  A
C4209      C4210   1.409       .  A
C4209      N4216   1.439       .  S
C4210      C4211   1.405       .  A
C4210      H4215   1.084       .  S
C4211      C4212   1.418       .  A
C4212      N4213   1.439       .  S
N4213      O4217   1.263       .  A
N4213      O4218   1.263       .  A
N4216      O4219   1.263       .  A
N4216      O4220   1.263       .  A
C4221      C4222   1.407       .  A
C4221      C4226   1.409       .  A
C4221      H4228   1.084       .  S
C4222      C4223   1.411       .  A
C4223      C4224   1.395       .  A
C4223      N4230   1.431       .  S
C4224      C4225   1.406       .  A
C4224      H4229   1.084       .  S
C4225      C4226   1.416       .  A
C4226      N4227   1.433       .  S
N4227      O4231   1.262       .  A
N4227      O4232   1.262       .  A
N4230      O4233   1.262       .  A
N4230      O4234   1.262       .  A
C4235      C4236   1.401       .  A
C4235      C4240   1.403       .  A
C4235      H4242   1.084       .  S
C4236      C4237   1.415       .  A
C4237      C4238   1.390       .  A
C4237      N4244   1.439       .  S
C4238      C4239   1.398       .  A
C4238      H4243   1.084       .  S
C4239      C4240   1.417       .  A
C4240      N4241   1.437       .  S
N4241      O4245   1.263       .  A
N4241      O4246   1.263       .  A
N4244      O4247   1.261       .  A
N4244      O4248   1.263       .  A
C4249      C4250   1.404       .  A
C4249      C4254   1.405       .  A
C4249      H4256   1.084       .  S
C4250      C4251   1.416       .  A
C4251      C4252   1.401       .  A
C4251      N4258   1.438       .  S
C4252      C4253   1.405       .  A
C4252      H4257   1.084       .  S
C4253      C4254   1.417       .  A
C4254      N4255   1.434       .  S
N4255      O4259   1.262       .  A
N4255      O4260   1.262       .  A
N4258      O4261   1.263       .  A
N4258      O4262   1.263       .  A
C4263      C4264   1.403       .  A
C4263      C4268   1.398       .  A
C4263      H4270   1.084       .  S
C4264      C4265   1.417       .  A
C4265      C4266   1.403       .  A
C4265      N4272   1.432       .  S
C4266      C4267   1.404       .  A
C4266      H4271   1.084       .  S
C4267      C4268   1.418       .  A
C4268      N4269   1.434       .  S
N4269      O4273   1.263       .  A
N4269      O4274   1.262       .  A
N4272      O4275   1.262       .  A
N4272      O4276   1.262       .  A
C4277      C4278   1.403       .  A
C4277      C4282   1.401       .  A
C4277      H4284   1.084       .  S
C4278      C4279   1.414       .  A
C4279      C4280   1.408       .  A
C4279      N4286   1.430       .  S
C4280      C4281   1.407       .  A
C4280      H4285   1.083       .  S
C4281      C4282   1.422       .  A
C4282      N4283   1.435       .  S
N4283      O4287   1.263       .  A
N4283      O4288   1.262       .  A
N4286      O4289   1.262       .  A
N4286      O4290   1.262       .  A
C4291      C4292   1.399       .  A
C4291      C4296   1.398       .  A
C4291      H4298   1.084       .  S
C4292      C4293   1.418       .  A
C4293      C4294   1.405       .  A
C4293      N4300   1.448       .  S
C4294      C4295   1.401       .  A
C4294      H4299   1.084       .  S
C4295      C4296   1.411       .  A
C4296      N4297   1.441       .  S
N4297      O4301   1.263       .  A
N4297      O4302   1.263       .  A
N4300      O4303   1.262       .  A
N4300      O4304   1.263       .  A
C4305      C4306   1.404       .  A
C4305      C4310   1.397       .  A
C4305      H4312   1.084       .  S
C4306      C4307   1.415       .  A
C4307      C4308   1.409       .  A
C4307      N4314   1.438       .  S
C4308      C4309   1.406       .  A
C4308      H4313   1.083       .  S
C4309      C4310   1.413       .  A
C4310      N4311   1.438       .  S
N4311      O4315   1.263       .  A
N4311      O4316   1.263       .  A
N4314      O4317   1.263       .  A
N4314      O4318   1.263       .  A
C4319      C4320   1.399       .  A
C4319      C4324   1.395       .  A
C4319      H4326   1.084       .  S
C4320      C4321   1.418       .  A
C4321      C4322   1.410       .  A
C4321      N4328   1.439       .  S
C4322      C4323   1.404       .  A
C4322      H4327   1.083       .  S
C4323      C4324   1.415       .  A
C4324      N4325   1.437       .  S
N4325      O4329   1.263       .  A
N4325      O4330   1.262       .  A
N4328      O4331   1.263       .  A
N4328      O4332   1.263       .  A
C4333      C4334   1.400       .  A
C4333      C4338   1.401       .  A
C4333      H4340   1.084       .  S
C4334      C4335   1.413       .  A
C4335      C4336   1.401       .  A
C4335      N4342   1.442       .  S
C4336      C4337   1.399       .  A
C4336      H4341   1.084       .  S
C4337      C4338   1.413       .  A
C4338      N4339   1.442       .  S
N4339      O4343   1.263       .  A
N4339      O4344   1.262       .  A
N4342      O4345   1.263       .  A
N4342      O4346   1.263       .  A
C4347      C4348   1.401       .  A
C4347      C4352   1.403       .  A
C4347      H4354   1.084       .  S
C4348      C4349   1.419       .  A
C4349      C4350   1.408       .  A
C4349      N4356   1.444       .  S
C4350      C4351   1.401       .  A
C4350      H4355   1.084       .  S
C4351      C4352   1.416       .  A
C4352      N4353   1.443       .  S
N4353      O4357   1.263       .  A
N4353      O4358   1.262       .  A
N4356      O4359   1.261       .  A
N4356      O4360   1.263       .  A
C4361      C4362   1.406       .  A
C4361      C4366   1.410       .  A
C4361      H4368   1.084       .  S
C4362      C4363   1.415       .  A
C4363      C4364   1.402       .  A
C4363      N4370   1.441       .  S
C4364      C4365   1.404       .  A
C4364      H4369   1.084       .  S
C4365      C4366   1.415       .  A
C4366      N4367   1.439       .  S
N4367      O4371   1.263       .  A
N4367      O4372   1.263       .  A
N4370      O4373   1.263       .  A
N4370      O4374   1.263       .  A
C4375      C4376   1.401       .  A
C4375      C4380   1.405       .  A
C4375      H4382   1.084       .  S
C4376      C4377   1.415       .  A
C4377      C4378   1.399       .  A
C4377      N4384   1.443       .  S
C4378      C4379   1.399       .  A
C4378      H4383   1.085       .  S
C4379      C4380   1.416       .  A
C4380      N4381   1.445       .  S
N4381      O4385   1.263       .  A
N4381      O4386   1.262       .  A
N4384      O4387   1.262       .  A
N4384      O4388   1.263       .  A
C4389      C4390   1.406       .  A
C4389      C4394   1.399       .  A
C4389      H4396   1.084       .  S
C4390      C4391   1.416       .  A
C4391      C4392   1.408       .  A
C4391      N4398   1.436       .  S
C4392      C4393   1.407       .  A
C4392      H4397   1.084       .  S
C4393      C4394   1.414       .  A
C4394      N4395   1.437       .  S
N4395      O4399   1.263       .  A
N4395      O4400   1.262       .  A
N4398      O4401   1.262       .  A
N4398      O4402   1.263       .  A
C4403      C4404   1.399       .  A
C4403      C4408   1.400       .  A
C4403      H4410   1.084       .  S
C4404      C4405   1.418       .  A
C4405      C4406   1.411       .  A
C4405      N4412   1.441       .  S
C4406      C4407   1.403       .  A
C4406      H4411   1.083       .  S
C4407      C4408   1.416       .  A
C4408      N4409   1.439       .  S
N4409      O4413   1.263       .  A
N4409      O4414   1.262       .  A
N4412      O4415   1.263       .  A
N4412      O4416   1.263       .  A
C4417      C4418   1.401       .  A
C4417      C4422   1.406       .  A
C4417      H4424   1.084       .  S
C4418      C4419   1.407       .  A
C4419      C4420   1.390       .  A
C4419      N4426   1.431       .  S
C4420      C4421   1.402       .  A
C4420      H4425   1.084       .  S
C4421      C4422   1.418       .  A
C4422      N4423   1.434       .  S
N4423      O4427   1.262       .  A
N4423      O4428   1.262       .  A
N4426      O4429   1.261       .  A
N4426      O4430   1.262       .  A
C4431      C4432   1.403       .  A
C4431      C4436   1.411       .  A
C4431      H4438   1.084       .  S
C4432      C4433   1.414       .  A
C4433      C4434   1.398       .  A
C4433      N4440   1.432       .  S
C4434      C4435   1.403       .  A
C4434      H4439   1.084       .  S
C4435      C4436   1.421       .  A
C4436      N4437   1.438       .  S
N4437      O4441   1.263       .  A
N4437      O4442   1.261       .  A
N4440      O4443   1.262       .  A
N4440      O4444   1.262       .  A
C4445      C4446   1.402       .  A
C4445      C4450   1.404       .  A
C4445      H4452   1.084       .  S
C4446      C4447   1.414       .  A
C4447      C4448   1.395       .  A
C4447      N4454   1.439       .  S
C4448      C4449   1.400       .  A
C4448      H4453   1.084       .  S
C4449      C4450   1.416       .  A
C4450      N4451   1.437       .  S
N4451      O4455   1.263       .  A
N4451      O4456   1.263       .  A
N4454      O4457   1.263       .  A
N4454      O4458   1.263       .  A
C4459      C4460   1.406       .  A
C4459      C4464   1.411       .  A
C4459      H4466   1.084       .  S
C4460      C4461   1.414       .  A
C4461      C4462   1.395       .  A
C4461      N4468   1.431       .  S
C4462      C4463   1.402       .  A
C4462      H4467   1.084       .  S
C4463      C4464   1.418       .  A
C4464      N4465   1.434       .  S
N4465      O4469   1.262       .  A
N4465      O4470   1.262       .  A
N4468      O4471   1.262       .  A
N4468      O4472   1.262       .  A
C4473      C4474   1.406       .  A
C4473      C4478   1.407       .  A
C4473      H4480   1.084       .  S
C4474      C4475   1.416       .  A
C4475      C4476   1.402       .  A
C4475      N4482   1.436       .  S
C4476      C4477   1.405       .  A
C4476      H4481   1.084       .  S
C4477      C4478   1.416       .  A
C4478      N4479   1.436       .  S
N4479      O4483   1.262       .  A
N4479      O4484   1.263       .  A
N4482      O4485   1.262       .  A
N4482      O4486   1.263       .  A
C4487      C4488   1.403       .  A
C4487      C4492   1.395       .  A
C4487      H4494   1.084       .  S
C4488      C4489   1.415       .  A
C4489      C4490   1.407       .  A
C4489      N4496   1.433       .  S
C4490      C4491   1.406       .  A
C4490      H4495   1.084       .  S
C4491      C4492   1.413       .  A
C4492      N4493   1.432       .  S
N4493      O4497   1.262       .  A
N4493      O4498   1.262       .  A
N4496      O4499   1.262       .  A
N4496      O4500   1.262       .  A
C4501      C4502   1.402       .  A
C4501      C4506   1.413       .  A
C4501      H4508   1.083       .  S
C4502      C4503   1.406       .  A
C4503      C4504   1.389       .  A
C4503      N4510   1.427       .  S
C4504      C4505   1.393       .  A
C4504      H4509   1.085       .  S
C4505      C4506   1.418       .  A
C4506      N4507   1.443       .  S
N4507      O4511   1.263       .  A
N4507      O4512   1.263       .  A
N4510      O4513   1.259       .  A
N4510      O4514   1.262       .  A
C4515      C4516   1.403       .  A
C4515      C4520   1.402       .  A
C4515      H4522   1.084       .  S
C4516      C4517   1.416       .  A
C4517      C4518   1.406       .  A
C4517      N4524   1.436       .  S
C4518      C4519   1.405       .  A
C4518      H4523   1.084       .  S
C4519      C4520   1.416       .  A
C4520      N4521   1.438       .  S
N4521      O4525   1.263       .  A
N4521      O4526   1.263       .  A
N4524      O4527   1.262       .  A
N4524      O4528   1.263       .  A
C4529      C4530   1.409       .  A
C4529      C4534   1.412       .  A
C4529      H4536   1.083       .  S
C4530      C4531   1.411       .  A
C4531      C4532   1.396       .  A
C4531      N4538   1.431       .  S
C4532      C4533   1.404       .  A
C4532      H4537   1.085       .  S
C4533      C4534   1.417       .  A
C4534      N4535   1.441       .  S
N4535      O4539   1.263       .  A
N4535      O4540   1.261       .  A
N4538      O4541   1.262       .  A
N4538      O4542   1.262       .  A
C4543      C4544   1.408       .  A
C4543      C4548   1.412       .  A
C4543      H4550   1.083       .  S
C4544      C4545   1.414       .  A
C4545      C4546   1.385       .  A
C4545      N4552   1.425       .  S
C4546      C4547   1.391       .  A
C4546      H4551   1.086       .  S
C4547      C4548   1.416       .  A
C4548      N4549   1.440       .  S
N4549      O4553   1.263       .  A
N4549      O4554   1.261       .  A
N4552      O4555   1.263       .  A
N4552      O4556   1.263       .  A
C4557      C4558   1.405       .  A
C4557      C4562   1.398       .  A
C4557      H4564   1.084       .  S
C4558      C4559   1.416       .  A
C4559      C4560   1.410       .  A
C4559      N4566   1.435       .  S
C4560      C4561   1.405       .  A
C4560      H4565   1.084       .  S
C4561      C4562   1.411       .  A
C4562      N4563   1.434       .  S
N4563      O4567   1.262       .  A
N4563      O4568   1.262       .  A
N4566      O4569   1.262       .  A
N4566      O4570   1.263       .  A
C4571      C4572   1.405       .  A
C4571      C4576   1.401       .  A
C4571      H4578   1.084       .  S
C4572      C4573   1.418       .  A
C4573      C4574   1.407       .  A
C4573      N4580   1.434       .  S
C4574      C4575   1.405       .  A
C4574      H4579   1.084       .  S
C4575      C4576   1.418       .  A
C4576      N4577   1.436       .  S
N4577      O4581   1.263       .  A
N4577      O4582   1.262       .  A
N4580      O4583   1.262       .  A
N4580      O4584   1.262       .  A
C4585      C4586   1.403       .  A
C4585      C4590   1.398       .  A
C4585      H4592   1.084       .  S
C4586      C4587   1.415       .  A
C4587      C4588   1.408       .  A
C4587      N4594   1.439       .  S
C4588      C4589   1.404       .  A
C4588      H4593   1.084       .  S
C4589      C4590   1.413       .  A
C4590      N4591   1.440       .  S
N4591      O4595   1.263       .  A
N4591      O4596   1.263       .  A
N4594      O4597   1.263       .  A
N4594      O4598   1.263       .  A
C4599      C4600   1.403       .  A
C4599      C4604   1.415       .  A
C4599      H4606   1.083       .  S
C4600      C4601   1.410       .  A
C4601      C4602   1.395   1_545  A
C4601      N4608   1.432       .  S
C4602      C4603   1.400       .  A
C4602      H4607   1.085       .  S
C4603      C4604   1.425   1_565  A
C4604      N4605   1.447   1_545  S
N4605      O4609   1.263   1_565  A
N4605      O4610   1.261       .  A
N4608      O4611   1.262       .  A
N4608      O4612   1.262       .  A
C4613      C4614   1.406       .  A
C4613      C4618   1.400       .  A
C4613      H4620   1.084       .  S
C4614      C4615   1.416       .  A
C4615      C4616   1.409       .  A
C4615      N4622   1.436       .  S
C4616      C4617   1.406       .  A
C4616      H4621   1.084       .  S
C4617      C4618   1.414       .  A
C4618      N4619   1.438       .  S
N4619      O4623   1.263       .  A
N4619      O4624   1.263       .  A
N4622      O4625   1.263       .  A
N4622      O4626   1.263       .  A
C4627      C4628   1.404       .  A
C4627      C4632   1.398       .  A
C4627      H4634   1.084       .  S
C4628      C4629   1.417       .  A
C4629      C4630   1.412       .  A
C4629      N4636   1.437       .  S
C4630      C4631   1.407       .  A
C4630      H4635   1.083       .  S
C4631      C4632   1.415       .  A
C4632      N4633   1.438       .  S
N4633      O4637   1.263       .  A
N4633      O4638   1.263       .  A
N4636      O4639   1.263       .  A
N4636      O4640   1.263       .  A
C4641      C4642   1.403       .  A
C4641      C4646   1.395       .  A
C4641      H4648   1.084       .  S
C4642      C4643   1.417       .  A
C4643      C4644   1.408       .  A
C4643      N4650   1.437       .  S
C4644      C4645   1.405       .  A
C4644      H4649   1.084       .  S
C4645      C4646   1.414       .  A
C4646      N4647   1.439       .  S
N4647      O4651   1.263       .  A
N4647      O4652   1.262       .  A
N4650      O4653   1.262       .  A
N4650      O4654   1.263       .  A
C4655      C4656   1.404       .  A
C4655      C4660   1.405       .  A
C4655      H4662   1.084       .  S
C4656      C4657   1.414       .  A
C4657      C4658   1.401       .  A
C4657      N4664   1.430       .  S
C4658      C4659   1.405       .  A
C4658      H4663   1.084       .  S
C4659      C4660   1.417       .  A
C4660      N4661   1.432       .  S
N4661      O4665   1.262       .  A
N4661      O4666   1.262       .  A
N4664      O4667   1.262       .  A
N4664      O4668   1.262       .  A
C4669      C4670   1.405       .  A
C4669      C4674   1.399       .  A
C4669      H4676   1.084       .  S
C4670      C4671   1.418       .  A
C4671      C4672   1.408       .  A
C4671      N4678   1.434       .  S
C4672      C4673   1.406       .  A
C4672      H4677   1.083       .  S
C4673      C4674   1.416       .  A
C4674      N4675   1.431       .  S
N4675      O4679   1.262       .  A
N4675      O4680   1.262       .  A
N4678      O4681   1.262       .  A
N4678      O4682   1.263       .  A
C4683      C4684   1.402       .  A
C4683      C4688   1.408       .  A
C4683      H4690   1.084       .  S
C4684      C4685   1.409       .  A
C4685      C4686   1.394       .  A
C4685      N4692   1.432       .  S
C4686      C4687   1.400       .  A
C4686      H4691   1.085       .  S
C4687      C4688   1.419       .  A
C4688      N4689   1.442       .  S
N4689      O4693   1.263       .  A
N4689      O4694   1.261       .  A
N4692      O4695   1.262       .  A
N4692      O4696   1.262       .  A
C4697      C4698   1.404       .  A
C4697      C4702   1.409       .  A
C4697      H4704   1.083       .  S
C4698      C4699   1.413       .  A
C4699      C4700   1.406       .  A
C4699      N4706   1.444       .  S
C4700      C4701   1.404       .  A
C4700      H4705   1.083       .  S
C4701      C4702   1.415       .  A
C4702      N4703   1.443       .  S
N4703      O4707   1.263       .  A
N4703      O4708   1.263       .  A
N4706      O4709   1.263       .  A
N4706      O4710   1.263       .  A
C4711      C4712   1.402       .  A
C4711      C4716   1.406       .  A
C4711      H4718   1.084       .  S
C4712      C4713   1.410       .  A
C4713      C4714   1.392       .  A
C4713      N4720   1.430       .  S
C4714      C4715   1.400       .  A
C4714      H4719   1.085       .  S
C4715      C4716   1.417       .  A
C4716      N4717   1.436       .  S
N4717      O4721   1.263       .  A
N4717      O4722   1.261       .  A
N4720      O4723   1.262       .  A
N4720      O4724   1.262       .  A
C4725      C4726   1.403       .  A
C4725      C4730   1.403       .  A
C4725      H4732   1.084       .  S
C4726      C4727   1.415       .  A
C4727      C4728   1.409       .  A
C4727      N4734   1.440       .  S
C4728      C4729   1.404       .  A
C4728      H4733   1.084       .  S
C4729      C4730   1.417       .  A
C4730      N4731   1.447       .  S
N4731      O4735   1.263       .  A
N4731      O4736   1.262       .  A
N4734      O4737   1.261       .  A
N4734      O4738   1.263       .  A
C4739      C4740   1.403       .  A
C4739      C4744   1.407       .  A
C4739      H4746   1.084       .  S
C4740      C4741   1.418       .  A
C4741      C4742   1.410       .  A
C4741      N4748   1.441       .  S
C4742      C4743   1.403       .  A
C4742      H4747   1.084       .  S
C4743      C4744   1.417       .  A
C4744      N4745   1.442       .  S
N4745      O4749   1.263       .  A
N4745      O4750   1.263       .  A
N4748      O4751   1.263       .  A
N4748      O4752   1.263       .  A
C4753      C4754   1.403       .  A
C4753      C4758   1.400       .  A
C4753      H4760   1.084       .  S
C4754      C4755   1.415       .  A
C4755      C4756   1.407       .  A
C4755      N4762   1.438       .  S
C4756      C4757   1.406       .  A
C4756      H4761   1.084       .  S
C4757      C4758   1.415       .  A
C4758      N4759   1.437       .  S
N4759      O4763   1.263       .  A
N4759      O4764   1.262       .  A
N4762      O4765   1.263       .  A
N4762      O4766   1.263       .  A
C4767      C4768   1.401       .  A
C4767      C4772   1.403       .  A
C4767      H4774   1.084       .  S
C4768      C4769   1.415       .  A
C4769      C4770   1.401       .  A
C4769      N4776   1.438       .  S
C4770      C4771   1.400       .  A
C4770      H4775   1.084       .  S
C4771      C4772   1.412       .  A
C4772      N4773   1.437       .  S
N4773      O4777   1.263       .  A
N4773      O4778   1.262       .  A
N4776      O4779   1.262       .  A
N4776      O4780   1.262       .  A
C4781      C4782   1.393       .  A
C4781      C4786   1.390       .  A
C4781      H4788   1.086       .  S
C4782      C4783   1.423       .  A
C4783      C4784   1.420       .  A
C4783      N4790   1.447       .  S
C4784      C4785   1.406       .  A
C4784      H4789   1.083       .  S
C4785      C4786   1.410       .  A
C4786      N4787   1.429       .  S
N4787      O4791   1.262       .  A
N4787      O4792   1.262       .  A
N4790      O4793   1.262       .  A
N4790      O4794   1.263       .  A
C4795      C4796   1.404       .  A
C4795      C4800   1.401       .  A
C4795      H4802   1.084       .  S
C4796      C4797   1.416       .  A
C4797      C4798   1.412       .  A
C4797      N4804   1.439       .  S
C4798      C4799   1.407       .  A
C4798      H4803   1.084       .  S
C4799      C4800   1.413       .  A
C4800      N4801   1.441       .  S
N4801      O4805   1.263       .  A
N4801      O4806   1.263       .  A
N4804      O4807   1.263       .  A
N4804      O4808   1.263       .  A
C4809      C4810   1.404       .  A
C4809      C4814   1.407       .  A
C4809      H4816   1.083       .  S
C4810      C4811   1.416       .  A
C4811      C4812   1.390       .  A
C4811      N4818   1.436       .  S
C4812      C4813   1.400       .  A
C4812      H4817   1.084       .  S
C4813      C4814   1.417       .  A
C4814      N4815   1.437       .  S
N4815      O4819   1.263       .  A
N4815      O4820   1.263       .  A
N4818      O4821   1.262       .  A
N4818      O4822   1.263       .  A
C4823      C4824   1.403       .  A
C4823      C4828   1.405       .  A
C4823      H4830   1.084       .  S
C4824      C4825   1.416       .  A
C4825      C4826   1.402       .  A
C4825      N4832   1.439       .  S
C4826      C4827   1.405       .  A
C4826      H4831   1.084       .  S
C4827      C4828   1.417       .  A
C4828      N4829   1.434       .  S
N4829      O4833   1.262       .  A
N4829      O4834   1.262       .  A
N4832      O4835   1.263       .  A
N4832      O4836   1.263       .  A
C4837      C4838   1.404       .  A
C4837      C4842   1.403       .  A
C4837      H4844   1.084       .  S
C4838      C4839   1.416       .  A
C4839      C4840   1.408       .  A
C4839      N4846   1.438       .  S
C4840      C4841   1.405       .  A
C4840      H4845   1.084       .  S
C4841      C4842   1.415       .  A
C4842      N4843   1.437       .  S
N4843      O4847   1.263       .  A
N4843      O4848   1.262       .  A
N4846      O4849   1.263       .  A
N4846      O4850   1.263       .  A
C4851      C4852   1.402       .  A
C4851      C4856   1.405       .  A
C4851      H4858   1.084       .  S
C4852      C4853   1.414       .  A
C4853      C4854   1.401       .  A
C4853      N4860   1.442       .  S
C4854      C4855   1.403       .  A
C4854      H4859   1.084       .  S
C4855      C4856   1.415       .  A
C4856      N4857   1.439       .  S
N4857      O4861   1.262       .  A
N4857      O4862   1.263       .  A
N4860      O4863   1.263       .  A
N4860      O4864   1.263       .  A
C4865      C4866   1.407       .  A
C4865      C4870   1.409   1_554  A
C4865      H4872   1.084       .  S
C4866      C4867   1.419   1_554  A
C4867      C4868   1.399       .  A
C4867      N4874   1.432       .  S
C4868      C4869   1.402       .  A
C4868      H4873   1.084       .  S
C4869      C4870   1.416       .  A
C4870      N4871   1.432   1_556  S
N4871      O4875   1.262       .  A
N4871      O4876   1.262   1_554  A
N4874      O4877   1.262       .  A
N4874      O4878   1.263       .  A
C4879      C4880   1.402       .  A
C4879      C4884   1.403       .  A
C4879      H4886   1.084       .  S
C4880      C4881   1.416       .  A
C4881      C4882   1.405       .  A
C4881      N4888   1.441       .  S
C4882      C4883   1.403       .  A
C4882      H4887   1.084       .  S
C4883      C4884   1.414       .  A
C4884      N4885   1.440       .  S
N4885      O4889   1.263       .  A
N4885      O4890   1.263       .  A
N4888      O4891   1.263       .  A
N4888      O4892   1.263       .  A
C4893      C4894   1.404       .  A
C4893      C4898   1.401       .  A
C4893      H4900   1.084       .  S
C4894      C4895   1.415       .  A
C4895      C4896   1.410       .  A
C4895      N4902   1.439       .  S
C4896      C4897   1.406       .  A
C4896      H4901   1.084       .  S
C4897      C4898   1.414       .  A
C4898      N4899   1.441       .  S
N4899      O4903   1.263       .  A
N4899      O4904   1.263       .  A
N4902      O4905   1.263       .  A
N4902      O4906   1.263       .  A
C4907      C4908   1.400       .  A
C4907      C4912   1.396       .  A
C4907      H4914   1.085       .  S
C4908      C4909   1.415       .  A
C4909      C4910   1.403       .  A
C4909      N4916   1.441       .  S
C4910      C4911   1.401       .  A
C4910      H4915   1.084   1_554  S
C4911      C4912   1.412       .  A
C4912      N4913   1.442       .  S
N4913      O4917   1.263       .  A
N4913      O4918   1.263       .  A
N4916      O4919   1.261       .  A
N4916      O4920   1.263   1_554  A
