geometry optimzed in LAMMPS
_audit_creation_date              2020-11-30 
_audit_creation_method            'lammps2cif' 
_symmetry_space_group_name_H-M    'P1' 
_symmetry_Int_Tables_number       1 
_symmetry_cell_setting            triclinic 
loop_ 
_symmetry_equiv_pos_as_xyz 
  x,y,z 
_cell_length_a                    48.74025259 
_cell_length_b                    29.974139384996445 
_cell_length_c                    26.758323925398802 
_cell_angle_alpha                 90.0250636967196 
_cell_angle_beta                  89.84890256813006 
_cell_angle_gamma                 89.98289967656478 
loop_ 
_atom_site_label 
_atom_site_type_symbol 
_atom_site_fract_x 
_atom_site_fract_y 
_atom_site_fract_z 
_atom_site_charge 
N1          N  0.03086127  0.12045252  0.16540355    -0.03400
C2          C  0.03308582  0.14248016  0.20972790    -0.00800
C3          C  0.01266822  0.12862022  0.24220097    -0.23700
C4          C  0.99775984  0.09658722  0.21770516    -0.23900
C5          C  0.00937199  0.09201077  0.17088013    -0.00900
H6          H  0.00920980  0.14026484  0.27998589     0.12900
H7          H  0.98056233  0.07801983  0.23266601     0.12900
Zn8        Zn  0.85736132  0.86960656  0.03168001     1.49700
Zn9        Zn  0.91235458  0.81664380  0.00132047     1.49400
Zn10       Zn  0.90969893  0.92244771  0.98669628     1.49100
Zn11       Zn  0.91243500  0.87886708  0.09607843     1.49500
O12         O  0.89780119  0.87211057  0.02869800    -1.84000
O13         O  0.84276275  0.81040908  0.00579154    -0.74700
O14         O  0.93515692  0.82722815  0.93885169    -0.74500
O15         O  0.87678711  0.95939209  0.96413927    -0.74000
O16         O  0.88121306  0.77660002  0.98331249    -0.74700
O17         O  0.84107437  0.91935021  0.99037605    -0.74300
O18         O  0.92990483  0.89980615  0.92499205    -0.74900
O19         O  0.93897311  0.93013405  0.09894953    -0.74300
O20         O  0.93424954  0.78180500  0.05226505    -0.75000
O21         O  0.93653053  0.96229241  0.02435594    -0.74400
O22         O  0.93221598  0.82364566  0.12030429    -0.74900
O23         O  0.88195072  0.88894546  0.14525717    -0.74800
O24         O  0.84357031  0.87735691  0.10279050    -0.74600
C25         C  0.85518459  0.77675796  0.98751775     0.77200
C26         C  0.93949825  0.86181756  0.91227673     0.77700
C27         C  0.85095548  0.95276976  0.96702800     0.76700
C28         C  0.94636255  0.96050852  0.06842724     0.77000
C29         C  0.93962260  0.78798939  0.09833948     0.78200
C30         C  0.85591758  0.88553107  0.14367773     0.77200
C31         C  0.76626435  0.56893866  0.89159445     0.80300
N32         N  0.77789590  0.60256101  0.91864416    -0.78000
C33         C  0.80058102  0.62393774  0.90119581     0.82700
N34         N  0.81062032  0.61318983  0.85564988    -0.78000
C35         C  0.79913550  0.58046346  0.82816334     0.82800
N36         N  0.77677864  0.55853800  0.84576333    -0.79700
N37         N  0.00485636  0.62662175  0.23495822    -0.03400
C38         C  0.00253545  0.64764475  0.19006863    -0.00800
C39         C  0.02352191  0.63459690  0.15840197    -0.23700
C40         C  0.03911295  0.60427266  0.18410364    -0.23900
C41         C  0.02728464  0.60002042  0.23073934    -0.00900
H42         H  0.02703514  0.64593416  0.12052596     0.12900
H43         H  0.05696378  0.58671829  0.17014880     0.12900
Zn44       Zn  0.12274838  0.42381141  0.41051856     1.49700
Zn45       Zn  0.12036787  0.38015909  0.29972048     1.49400
Zn46       Zn  0.17525655  0.37412000  0.36595768     1.49100
Zn47       Zn  0.12202752  0.31726470  0.39508687     1.49500
O48         O  0.13498848  0.37402393  0.36778163    -1.84000
O49         O  0.09665079  0.46379808  0.37238215    -0.74700
O50         O  0.15167727  0.39105736  0.25080661    -0.74500
O51         O  0.19094804  0.42343129  0.40781433    -0.74000
O52         O  0.09319756  0.43175594  0.29745809    -0.74700
O53         O  0.15492765  0.46177194  0.43526532    -0.74300
O54         O  0.18931633  0.38294927  0.29601253    -0.74900
O55         O  0.15407501  0.27853137  0.41383677    -0.74300
O56         O  0.10125317  0.32342141  0.27548330    -0.75000
O57         O  0.19110265  0.31649105  0.39128082    -0.74400
O58         O  0.10089777  0.28133865  0.34340423    -0.74900
O59         O  0.09932212  0.32699466  0.45789873    -0.74800
O60         O  0.10213377  0.39992080  0.47093021    -0.74600
C61         C  0.08644229  0.46216961  0.32859924     0.77200
C62         C  0.17775794  0.38971700  0.25408194     0.77700
C63         C  0.18081597  0.45600638  0.43209760     0.76700
C64         C  0.17998968  0.28156297  0.40916826     0.77000
C65         C  0.09504183  0.28704632  0.29737346     0.78200
C66         C  0.09383192  0.36130761  0.48426175     0.77200
C67         C  0.27322752  0.08007816  0.50857327     0.80300
N68         N  0.26352012  0.11397887  0.47940628    -0.78000
C69         C  0.24337269  0.14130316  0.49673390     0.82700
N70         N  0.23296742  0.13492825  0.54295859    -0.78000
C71         C  0.24223971  0.10147582  0.57219596     0.82800
N72         N  0.26181251  0.07331926  0.55450719    -0.79700
N73         N  0.02759040  0.35276518  0.66286713    -0.03400
C74         C  0.02699319  0.32312922  0.70130176    -0.00800
C75         C  0.00374895  0.32913821  0.73008867    -0.23700
C76         C  0.98937779  0.36353813  0.70885655    -0.23900
C77         C  0.00419407  0.37719737  0.66751776    -0.00900
H78         H  0.99810142  0.31083314  0.76341415     0.12900
H79         H  0.97021401  0.37739432  0.72225024     0.12900
Zn80       Zn  0.88414190  0.61518545  0.46388626     1.49700
Zn81       Zn  0.93942053  0.61462684  0.53050113     1.49400
Zn82       Zn  0.88335961  0.65381324  0.57514114     1.49100
Zn83       Zn  0.88886909  0.54840278  0.55581637     1.49500
O84         O  0.89914586  0.60797937  0.53126583    -1.84000
O85         O  0.91494560  0.62294777  0.41353066    -0.74700
O86         O  0.95162774  0.66680674  0.57465201    -0.74500
O87         O  0.85727372  0.69464015  0.53883301    -0.74000
O88         O  0.95314437  0.62398476  0.45879394    -0.74700
O89         O  0.85888448  0.66847186  0.46128695    -0.74300
O90         O  0.91249316  0.69221018  0.60641316    -0.74900
O91         O  0.86689428  0.55241442  0.62001345    -0.74300
O92         O  0.95736454  0.55858012  0.55821950    -0.75000
O93         O  0.86177053  0.62553855  0.63014424    -0.74400
O94         O  0.92252254  0.51150392  0.56987846    -0.74900
O95         O  0.86462460  0.51562466  0.50677909    -0.74800
O96         O  0.86069148  0.56225271  0.44301297    -0.74600
C97         C  0.94101413  0.62600443  0.41657144     0.77200
C98         C  0.93847556  0.69412240  0.60247715     0.77700
C99         C  0.84952099  0.69586669  0.49350645     0.76700
C100        C  0.85696966  0.58562145  0.64359854     0.77000
C101        C  0.94803636  0.52054463  0.57118258     0.78200
C102        C  0.85481645  0.52533254  0.46410594     0.77200
C103        C  0.76195894  0.90028035  0.38787771     0.80300
N104        N  0.77627489  0.90710658  0.34470280    -0.78000
C105        C  0.79662793  0.87851893  0.33104869     0.82700
N106        N  0.80208360  0.84278603  0.36022024    -0.78000
C107        C  0.78881949  0.83657034  0.40408150     0.82800
N108        N  0.76879324  0.86549758  0.41824756    -0.79700
N109        N  0.00481538  0.85753127  0.73309247    -0.03400
C110        C  0.00432488  0.83159530  0.69148639    -0.00800
C111        C  0.02607947  0.84211780  0.66040103    -0.23700
C112        C  0.04081260  0.87491411  0.68402485    -0.23900
C113        C  0.02750906  0.88336333  0.72863318    -0.00900
H114        H  0.03108694  0.82664741  0.62498303     0.12900
H115        H  0.05957949  0.89020124  0.67076847     0.12900
Zn116      Zn  0.15080291  0.15832872  0.82738672     1.49700
Zn117      Zn  0.14658750  0.05236565  0.83668352     1.49400
Zn118      Zn  0.15084242  0.11316586  0.93480350     1.49100
Zn119      Zn  0.09554627  0.11402527  0.86970991     1.49500
O120        O  0.13575398  0.10938418  0.86727419    -1.84000
O121        O  0.17407959  0.13448482  0.77204403    -0.74700
O122        O  0.17174525  0.01819844  0.88190418    -0.74500
O123        O  0.17510923  0.16730092  0.94186786    -0.74000
O124        O  0.16876834  0.06120470  0.77320757    -0.74700
O125        O  0.17500813  0.19946666  0.86731267    -0.74300
O126        O  0.17507914  0.06014479  0.94987223    -0.74900
O127        O  0.08243762  0.12429851  0.94162521    -0.74300
O128        O  0.11333764  0.01414019  0.82251274    -0.75000
O129        O  0.12049648  0.11720111  0.98650346    -0.74400
O130        O  0.07809047  0.05624234  0.84603123    -0.74900
O131        O  0.08224366  0.16357171  0.82286538    -0.74800
O132        O  0.12094671  0.19451708  0.79548136    -0.74600
C133        C  0.17912393  0.09612972  0.75382561     0.77200
C134        C  0.18182942  0.02563926  0.92485284     0.77700
C135        C  0.18322956  0.19790292  0.91235762     0.76700
C136        C  0.09458398  0.12277382  0.98385291     0.77000
C137        C  0.08758205  0.02000709  0.82801872     0.78200
C138        C  0.09488184  0.19232977  0.79610802     0.77200
C139        C  0.27509372  0.40087268  0.01145147     0.80300
N140        N  0.26520458  0.36666206  0.98306893    -0.78000
C141        C  0.24572744  0.33883044  0.00178713     0.82700
N142        N  0.23560385  0.34589512  0.04818565    -0.78000
C143        C  0.24448112  0.38052255  0.07620076     0.82800
N144        N  0.26423592  0.40814587  0.05784767    -0.79700
N145        N  0.50344446  0.62347109  0.16268001    -0.03400
C146        C  0.50141401  0.65036232  0.20340898    -0.00800
C147        C  0.52146431  0.63967812  0.23784002    -0.23700
C148        C  0.53620570  0.60485031  0.21803540    -0.23900
C149        C  0.52468988  0.59551667  0.17215437    -0.00900
H150        H  0.52504051  0.65574476  0.27345940     0.12900
H151        H  0.55378260  0.58866535  0.23473711     0.12900
Zn152      Zn  0.64408201  0.42938098  0.05426235     1.49700
Zn153      Zn  0.64850617  0.32398673  0.06608465     1.49400
Zn154      Zn  0.59330212  0.36694942  0.02304134     1.49100
Zn155      Zn  0.64905462  0.36763095  0.95761466     1.49500
O156        O  0.63351986  0.37201554  0.02498149    -1.84000
O157        O  0.66805302  0.42191658  0.11496560    -0.74700
O158        O  0.61870935  0.28775160  0.09858303    -0.74500
O159        O  0.57549088  0.42256567  0.05249238    -0.74000
O160        O  0.67257224  0.34846327  0.11958748    -0.74700
O161        O  0.61095388  0.46521518  0.07320163    -0.74300
O162        O  0.58033311  0.31398534  0.06521774    -0.74900
O163        O  0.61872467  0.36363758  0.90636099    -0.74300
O164        O  0.67243832  0.28224869  0.02668234    -0.75000
O165        O  0.58023805  0.36105655  0.95080904    -0.74400
O166        O  0.67335820  0.31298505  0.95162863    -0.74900
O167        O  0.67283059  0.42126113  0.94116460    -0.74800
O168        O  0.66726068  0.46512986  0.00722381    -0.74600
C169        C  0.67839523  0.38741113  0.13509843     0.77200
C170        C  0.59276107  0.28658843  0.09395343     0.77700
C171        C  0.58519318  0.45847728  0.07089653     0.76700
C172        C  0.59261774  0.36104501  0.90869627     0.77000
C173        C  0.68090920  0.28240120  0.98178826     0.78200
C174        C  0.67795067  0.45723439  0.96473424     0.77200
C175        C  0.77267856  0.07757013  0.88322727     0.80300
N176        N  0.76060716  0.06793961  0.83849449    -0.78000
C177        C  0.73911254  0.09268744  0.82205160     0.82700
N178        N  0.72980339  0.12685048  0.85021651    -0.78000
C179        C  0.74208878  0.13800305  0.89362971     0.82800
N180        N  0.76316970  0.11262451  0.91101263    -0.79700
N181        N  0.52743694  0.12652517  0.23102802    -0.03400
C182        C  0.52507961  0.15399734  0.19067406    -0.00800
C183        C  0.50439099  0.13906895  0.15956774    -0.23700
C184        C  0.49356193  0.10152864  0.18118137    -0.23900
C185        C  0.50810075  0.09435705  0.22458414    -0.00900
H186        H  0.49834131  0.15330403  0.12410210     0.12900
H187        H  0.47683499  0.08155680  0.16687863     0.12900
Zn188      Zn  0.39141302  0.93222013  0.33961834     1.49700
Zn189      Zn  0.43908944  0.86320645  0.36773667     1.49400
Zn190      Zn  0.38386987  0.86846364  0.43398181     1.49100
Zn191      Zn  0.38144225  0.82801932  0.32360170     1.49500
O192        O  0.39917776  0.87274739  0.36642949    -1.84000
O193        O  0.42598824  0.96661699  0.32678068    -0.74700
O194        O  0.45244867  0.85316991  0.43994391    -0.74500
O195        O  0.35964347  0.92205925  0.44982629    -0.74000
O196        O  0.45954315  0.91788400  0.34038135    -0.74700
O197        O  0.36717905  0.96720846  0.38571898    -0.74300
O198        O  0.41466096  0.86466610  0.48530681    -0.74900
O199        O  0.35637058  0.78727934  0.36242377    -0.74300
O200        O  0.44881906  0.81133661  0.32189784    -0.75000
O201        O  0.35937167  0.81387209  0.43954231    -0.74400
O202        O  0.40943291  0.78969367  0.28776755    -0.74900
O203        O  0.35848993  0.85791605  0.27148530    -0.74800
O204        O  0.36996427  0.92953435  0.27545523    -0.74600
C205        C  0.45135656  0.95657765  0.32721372     0.77200
C206        C  0.44045560  0.85759743  0.48225938     0.77700
C207        C  0.35510236  0.95852061  0.42669406     0.76700
C208        C  0.34981659  0.78560997  0.40839515     0.77000
C209        C  0.43542968  0.78689271  0.29137421     0.78200
C210        C  0.35684091  0.89769039  0.25519908     0.77200
C211        C  0.26085060  0.58056297  0.51034163     0.80300
N212        N  0.26901086  0.61636922  0.48252958    -0.78000
C213        C  0.28706547  0.64640390  0.50170550     0.82700
N214        N  0.29756502  0.63967539  0.54788956    -0.78000
C215        C  0.29082725  0.60298880  0.57468810     0.82800
N216        N  0.27271151  0.57307162  0.55568254    -0.79700
N217        N  0.53269205  0.36493904  0.72302923    -0.03400
C218        C  0.53610112  0.34340380  0.67862970    -0.00800
C219        C  0.51709882  0.35842193  0.64427413    -0.23700
C220        C  0.50134929  0.38996668  0.66811455    -0.23900
C221        C  0.51129363  0.39327292  0.71620163    -0.00900
H222        H  0.51482010  0.34726480  0.60603878     0.12900
H223        H  0.48446735  0.40853954  0.65216218     0.12900
Zn224      Zn  0.38361761  0.61368903  0.93353465     1.49700
Zn225      Zn  0.43952242  0.61521798  0.86853218     1.49400
Zn226      Zn  0.38856901  0.55335430  0.83551472     1.49100
Zn227      Zn  0.38494262  0.66033408  0.82590879     1.49500
O228        O  0.39925146  0.61059029  0.86590717    -1.84000
O229        O  0.41397459  0.61488502  0.98492608    -0.74700
O230        O  0.45732555  0.55887496  0.84084018    -0.74500
O231        O  0.36335238  0.51817295  0.88097953    -0.74000
O232        O  0.45241655  0.62233799  0.94043717    -0.74700
O233        O  0.35911415  0.56044163  0.94866955    -0.74300
O234        O  0.42206260  0.51577390  0.81991438    -0.74900
O235        O  0.36155012  0.63653891  0.77012846    -0.74300
O236        O  0.45329633  0.66722163  0.82627231    -0.75000
O237        O  0.36678223  0.56295516  0.77201023    -0.74400
O238        O  0.41556123  0.69707365  0.79458100    -0.74900
O239        O  0.36127818  0.70189186  0.86743775    -0.74800
O240        O  0.36056714  0.66973569  0.94183241    -0.74600
C241        C  0.43994443  0.61938736  0.98229529     0.77200
C242        C  0.44782726  0.52234230  0.82358198     0.77700
C243        C  0.35301361  0.52546464  0.92396438     0.76700
C244        C  0.35668124  0.59792543  0.75227034     0.77000
C245        C  0.44163093  0.69590337  0.79824514     0.78200
C246        C  0.35337685  0.70142051  0.91279650     0.77200
C247        C  0.26397033  0.90905917  0.01145555     0.80300
N248        N  0.27551134  0.92041220  0.05585599    -0.78000
C249        C  0.29621802  0.89577870  0.07503420     0.82700
N250        N  0.30555837  0.85966970  0.04992107    -0.78000
C251        C  0.29448839  0.84786861  0.00547494     0.82800
N252        N  0.27403776  0.87322633  0.98562845    -0.79700
N253        N  0.50815969  0.85582223  0.65883291    -0.03400
C254        C  0.50857868  0.83041724  0.70121031    -0.00800
C255        C  0.53043119  0.84269234  0.73109343    -0.23700
C256        C  0.54374737  0.87682279  0.70714512    -0.23900
C257        C  0.52976775  0.88431436  0.66321615    -0.00900
H258        H  0.53594929  0.82845883  0.76685124     0.12900
H259        H  0.56177579  0.89431541  0.72023121     0.12900
Zn260      Zn  0.62499012  0.06114089  0.48216258     1.49700
Zn261      Zn  0.62174527  0.10701990  0.58967557     1.49400
Zn262      Zn  0.67780998  0.11146398  0.52710511     1.49100
Zn263      Zn  0.62571736  0.16868623  0.49200658     1.49500
O264        O  0.63751795  0.11214749  0.52246068    -1.84000
O265        O  0.59865461  0.02134484  0.52127511    -0.74700
O266        O  0.65165444  0.09427868  0.63952655    -0.74500
O267        O  0.69312656  0.06071039  0.48692086    -0.74000
O268        O  0.59410011  0.05653417  0.59386674    -0.74700
O269        O  0.65721603  0.02337724  0.45773950    -0.74300
O270        O  0.69071710  0.10216525  0.59826328    -0.74900
O271        O  0.65875707  0.20514291  0.47003031    -0.74300
O272        O  0.60357876  0.16470034  0.61176738    -0.75000
O273        O  0.69486363  0.16769888  0.49872654    -0.74400
O274        O  0.60530338  0.20660528  0.54340267    -0.74900
O275        O  0.60249748  0.15740405  0.42940637    -0.74800
O276        O  0.60467172  0.08379226  0.42144844    -0.74600
C277        C  0.58777023  0.02464275  0.56454144     0.77200
C278        C  0.67774718  0.09449337  0.63878866     0.77700
C279        C  0.68309368  0.02853850  0.46192640     0.76700
C280        C  0.68456294  0.20100027  0.47598569     0.77000
C281        C  0.59885849  0.20139651  0.58932556     0.78200
C282        C  0.59701550  0.12173823  0.40516845     0.77200
C283        C  0.77366087  0.40691533  0.37568979     0.80300
N284        N  0.76504615  0.37047067  0.40214730    -0.78000
C285        C  0.74718959  0.34081794  0.38143960     0.82700
N286        N  0.73898555  0.34698243  0.33369126    -0.78000
C287        C  0.74709895  0.38303114  0.30723479     0.82800
N288        N  0.76414467  0.41338557  0.32840921    -0.79700
C289        C  0.71018519  0.27284727  0.48169950    -0.09100
C290        C  0.70298512  0.23479661  0.45414877     0.07100
C291        C  0.71245746  0.23033222  0.40479431    -0.02800
C292        C  0.72832596  0.26407866  0.38326496    -0.07300
C293        C  0.73485879  0.30319077  0.40986271     0.06200
C294        C  0.72594893  0.30705631  0.46003328    -0.02300
Br295      Br  0.73213818  0.35963705  0.49933498    -0.02000
H296        H  0.70275835  0.27661900  0.51966588     0.10100
H297        H  0.73479813  0.26035640  0.34470692     0.08200
Br298      Br  0.70287606  0.17981219  0.36437284    -0.02400
C299        C  0.57373495  0.94473849  0.56910634    -0.09100
C300        C  0.56853052  0.98940501  0.58218228     0.07100
C301        C  0.54660499  0.99863847  0.61535589    -0.02800
C302        C  0.53196685  0.96349888  0.63746996    -0.07300
C303        C  0.53867997  0.91892680  0.62726275     0.06200
C304        C  0.55930544  0.90970085  0.59183263    -0.02300
Br305      Br  0.57059521  0.84975114  0.57766152    -0.02000
H306        H  0.59041066  0.93680939  0.54375417     0.10100
H307        H  0.51637609  0.97099090  0.66518285     0.08200
Br308      Br  0.53593766  0.05834865  0.63272420    -0.02400
C309        C  0.32540333  0.73395663  0.98199187    -0.09100
C310        C  0.33574223  0.73821769  0.93303338     0.07100
C311        C  0.32932119  0.77774845  0.90606839    -0.02800
C312        C  0.31447887  0.81223781  0.92933146    -0.07300
C313        C  0.30572449  0.80847726  0.97907401     0.06200
C314        C  0.31056792  0.76829476  0.00483514    -0.02300
Br315      Br  0.29673267  0.75795162  0.07113563    -0.02000
H316        H  0.32909571  0.70382219  0.00325134     0.10100
H317        H  0.31076387  0.84294605  0.90909168     0.08200
Br318      Br  0.34064433  0.78856922  0.83829194    -0.02400
C319        C  0.44672895  0.77001326  0.75568330    -0.09100
C320        C  0.45846035  0.72876956  0.76936071     0.07100
C321        C  0.48605134  0.72045305  0.75548680    -0.02800
C322        C  0.50094980  0.75279354  0.72912829    -0.07300
C323        C  0.48945326  0.79429994  0.71669296     0.06200
C324        C  0.46210058  0.80291317  0.73075202    -0.02300
Br325      Br  0.44598966  0.86083291  0.72315154    -0.02000
H326        H  0.42585779  0.77771097  0.76670168     0.10100
H327        H  0.52227498  0.74625249  0.72017114     0.08200
Br328      Br  0.50524005  0.66628907  0.77156387    -0.02400
C329        C  0.57628339  0.31775099  0.62998432    -0.09100
C330        C  0.55620168  0.30803792  0.66599010     0.07100
C331        C  0.55154248  0.26319961  0.67911259    -0.02800
C332        C  0.56632164  0.22899396  0.65520582    -0.07300
C333        C  0.58553191  0.23862782  0.61726366     0.06200
C334        C  0.59113793  0.28384403  0.60618775    -0.02300
Br335      Br  0.61896251  0.30197653  0.55942066    -0.02000
H336        H  0.57963146  0.35202449  0.61868050     0.10100
H337        H  0.56174592  0.19463112  0.66457002     0.08200
Br338      Br  0.52305477  0.24695851  0.72519237    -0.02400
C339        C  0.47713990  0.41060138  0.78221591    -0.09100
C340        C  0.49961368  0.42445031  0.75340136     0.07100
C341        C  0.50701404  0.46980523  0.75334210    -0.02800
C342        C  0.49086398  0.50099094  0.77907757    -0.07300
C343        C  0.46707590  0.48767236  0.80489701     0.06200
C344        C  0.46110305  0.44163520  0.80840881    -0.02300
Br345      Br  0.43161426  0.41910521  0.84883226    -0.02000
H346        H  0.47132644  0.37572006  0.78261575     0.10100
H347        H  0.49606618  0.53605279  0.77645085     0.08200
Br348      Br  0.53785325  0.49095908  0.71559928    -0.02400
C349        C  0.31712076  0.62623601  0.70399221    -0.09100
C350        C  0.33814803  0.59444118  0.70857672     0.07100
C351        C  0.34101776  0.56150340  0.67099039    -0.02800
C352        C  0.32405592  0.56278364  0.62867222    -0.07300
C353        C  0.30407123  0.59610651  0.62339933     0.06200
C354        C  0.30010182  0.62703358  0.66219321    -0.02300
Br355      Br  0.27143922  0.67079201  0.65999508    -0.02000
H356        H  0.31397342  0.65095338  0.73300726     0.10100
H357        H  0.32739470  0.53907917  0.59868614     0.08200
Br358      Br  0.36902279  0.51647469  0.67277332    -0.02400
C359        C  0.33270068  0.92982134  0.12598311    -0.09100
C360        C  0.30796339  0.90614094  0.12385332     0.07100
C361        C  0.29756056  0.88571009  0.16710548    -0.02800
C362        C  0.31325118  0.88544393  0.21061981    -0.07300
C363        C  0.33905091  0.90622638  0.21191822     0.06200
C364        C  0.34815215  0.93062296  0.16996363    -0.02300
Br365      Br  0.38271494  0.96126767  0.16858078    -0.02000
H366        H  0.34074126  0.94560223  0.09259389     0.10100
H367        H  0.30574231  0.86749480  0.24303094     0.08200
Br368      Br  0.26298767  0.85513713  0.16725685    -0.02400
C369        C  0.47382995  0.81923107  0.53937574    -0.09100
C370        C  0.45691386  0.85608211  0.52903480     0.07100
C371        C  0.45636275  0.89184898  0.56340720    -0.02800
C372        C  0.47282240  0.89068232  0.60629940    -0.07300
C373        C  0.48952814  0.85379041  0.61691746     0.06200
C374        C  0.48977492  0.81764104  0.58313775    -0.02300
Br375      Br  0.51270223  0.76667152  0.59395606    -0.02000
H376        H  0.47461323  0.79152327  0.51334284     0.10100
H377        H  0.47287554  0.91904368  0.63144909     0.08200
Br378      Br  0.43495887  0.94456438  0.55172015    -0.02400
C379        C  0.31104391  0.67563837  0.42626607    -0.09100
C380        C  0.29776045  0.68400286  0.47186180     0.07100
C381        C  0.29895147  0.72714988  0.49243669    -0.02800
C382        C  0.31528998  0.75980920  0.47016562    -0.07300
C383        C  0.33048438  0.75078141  0.42664829     0.06200
C384        C  0.32722549  0.70859784  0.40330529    -0.02300
Br385      Br  0.34581779  0.69204065  0.34266844    -0.02000
H386        H  0.31019134  0.64256273  0.40998907     0.10100
H387        H  0.31641811  0.79238565  0.48760053     0.08200
Br388      Br  0.27844102  0.74339427  0.55088990    -0.02400
C389        C  0.56419102  0.09157880  0.27971884    -0.09100
C390        C  0.54704373  0.12831771  0.27140228     0.07100
C391        C  0.54778870  0.16416594  0.30543563    -0.02800
C392        C  0.56468981  0.16196677  0.34781986    -0.07300
C393        C  0.58108426  0.12423277  0.35750055     0.06200
C394        C  0.58122056  0.08925548  0.32172719    -0.02300
Br395      Br  0.60454467  0.03767239  0.32616583    -0.02000
H396        H  0.56405935  0.06417386  0.25335378     0.10100
H397        H  0.56424709  0.18937242  0.37420276     0.08200
Br398      Br  0.52454275  0.21520157  0.29807375    -0.02400
C399        C  0.48994932  0.97965980  0.27180176    -0.09100
C400        C  0.47125909  0.99058155  0.30990436     0.07100
C401        C  0.46928068  0.03539873  0.32578592    -0.02800
C402        C  0.48416735  0.06876320  0.30103328    -0.07300
C403        C  0.50078787  0.05829794  0.25989116     0.06200
C404        C  0.50438942  0.01321467  0.24640216    -0.02300
Br405      Br  0.52710770  0.99654899  0.19078434    -0.02000
H406        H  0.49175615  0.94542752  0.25918927     0.10100
H407        H  0.48110522  0.10333911  0.31149272     0.08200
Br408      Br  0.44557831  0.05297124  0.37970978    -0.02400
C409        C  0.72236788  0.08685875  0.68439373    -0.09100
C410        C  0.69339668  0.08684595  0.68595139     0.07100
C411        C  0.68034932  0.08173382  0.73310120    -0.02800
C412        C  0.69608630  0.08029864  0.77657653    -0.07300
C413        C  0.72473449  0.08312978  0.77491522     0.06200
C414        C  0.73800587  0.08496511  0.72828096    -0.02300
Br415      Br  0.77716650  0.08940937  0.72281805    -0.02000
H416        H  0.73303741  0.09003418  0.64902174     0.10100
H417        H  0.68574059  0.07877592  0.81245858     0.08200
Br418      Br  0.64128421  0.07849506  0.74300783    -0.02400
C419        C  0.71916829  0.35949791  0.17977838    -0.09100
C420        C  0.69832935  0.39172827  0.17630495     0.07100
C421        C  0.69661175  0.42539120  0.21318180    -0.02800
C422        C  0.71473313  0.42473778  0.25377156    -0.07300
C423        C  0.73429611  0.39070450  0.25848821     0.06200
C424        C  0.73690031  0.35860803  0.22050537    -0.02300
Br425      Br  0.76358575  0.31159563  0.22383487    -0.02000
H426        H  0.72118894  0.33392633  0.15136291     0.10100
H427        H  0.71218502  0.44887314  0.28358596     0.08200
Br428      Br  0.66807264  0.46956032  0.21380963    -0.02400
C429        C  0.58966991  0.37407658  0.81673827    -0.09100
C430        C  0.57675080  0.35937954  0.86097260     0.07100
C431        C  0.54909569  0.34493517  0.85802730    -0.02800
C432        C  0.53543506  0.34526649  0.81194316    -0.07300
C433        C  0.54840115  0.36039583  0.76831268     0.06200
C434        C  0.57568917  0.37530182  0.77112252    -0.02300
Br435      Br  0.59394172  0.40168362  0.71499101    -0.02000
H436        H  0.61056698  0.38632483  0.81778249     0.10100
H437        H  0.51430533  0.33428547  0.81014194     0.08200
Br438      Br  0.52838365  0.32428563  0.91462682    -0.02400
C439        C  0.72260176  0.17405663  0.96986232    -0.09100
C440        C  0.73173374  0.17762444  0.92035820     0.07100
C441        C  0.72659473  0.21725823  0.89377301    -0.02800
C442        C  0.71085164  0.25103191  0.91525770    -0.07300
C443        C  0.69980607  0.24666582  0.96358567     0.06200
C444        C  0.70682573  0.20811062  0.99182929    -0.02300
Br445      Br  0.69498080  0.19793176  0.05942346    -0.02000
H446        H  0.72646827  0.14367413  0.99061300     0.10100
H447        H  0.70678571  0.28058062  0.89320784     0.08200
Br448      Br  0.74034632  0.22690686  0.82726012    -0.02400
C449        C  0.57126244  0.18172493  0.16605664    -0.09100
C450        C  0.54358516  0.19092960  0.17572231     0.07100
C451        C  0.53269000  0.23237683  0.16049086    -0.02800
C452        C  0.54915810  0.26308950  0.13497625    -0.07300
C453        C  0.57661634  0.25336176  0.12323981     0.06200
C454        C  0.58772037  0.21211720  0.13962694    -0.02300
Br455      Br  0.62404117  0.19245811  0.12250239    -0.02000
H456        H  0.57960632  0.14940729  0.17593994     0.10100
H457        H  0.54022270  0.29456679  0.12355510     0.08200
Br458      Br  0.49508852  0.24843286  0.17249699    -0.02400
C459        C  0.47350481  0.65667494  0.03867921    -0.09100
C460        C  0.45597506  0.62053721  0.02906531     0.07100
C461        C  0.45417392  0.58567665  0.06426708    -0.02800
C462        C  0.46982742  0.58732726  0.10800000    -0.07300
C463        C  0.48691110  0.62382127  0.11814779     0.06200
C464        C  0.48872472  0.65870303  0.08304316    -0.02300
Br465      Br  0.51261685  0.70859128  0.09296450    -0.02000
H466        H  0.47520507  0.68352703  0.01177659     0.10100
H467        H  0.46865980  0.56006214  0.13443635     0.08200
Br468      Br  0.43179442  0.53394979  0.05309949    -0.02400
C469        C  0.49238755  0.73007607  0.21845711    -0.09100
C470        C  0.48169061  0.68703078  0.21215666     0.07100
C471        C  0.45431959  0.67862524  0.22622430    -0.02800
C472        C  0.43888756  0.71224427  0.24972489    -0.07300
C473        C  0.45048345  0.75431574  0.25976405     0.06200
C474        C  0.47697723  0.76375258  0.24122629    -0.02300
Br475      Br  0.49320371  0.82204277  0.24537999    -0.02000
H476        H  0.51341128  0.73696897  0.20769662     0.10100
H477        H  0.41836268  0.70460856  0.26278052     0.08200
Br478      Br  0.43823768  0.62059397  0.21939016    -0.02400
C479        C  0.57533140  0.53826676  0.08749167    -0.09100
C480        C  0.56661951  0.49362527  0.09045312     0.07100
C481        C  0.54180421  0.48386146  0.11570823    -0.02800
C482        C  0.52699903  0.51830131  0.13891078    -0.07300
C483        C  0.53650636  0.56241658  0.13750407     0.06200
C484        C  0.56063667  0.57236830  0.11097424    -0.02300
Br485      Br  0.57552030  0.63160263  0.10921808    -0.02000
H486        H  0.59424468  0.54654907  0.06832725     0.10100
H487        H  0.50893770  0.51021123  0.16073436     0.08200
Br488      Br  0.52876061  0.42401899  0.12541590    -0.02400
C489        C  0.33460538  0.48302098  0.99688807    -0.09100
C490        C  0.33337333  0.49284033  0.94562962     0.07100
C491        C  0.31313820  0.47166478  0.91629926    -0.02800
C492        C  0.29466780  0.44175910  0.93845958    -0.07300
C493        C  0.29571274  0.43211620  0.98984794     0.06200
C494        C  0.31631773  0.45268152  0.01896839    -0.02300
Br495      Br  0.32205619  0.43844643  0.08807289    -0.02000
H496        H  0.35028451  0.49838991  0.01979043     0.10100
H497        H  0.27897363  0.42664214  0.91539002     0.08200
Br498      Br  0.30832834  0.48442656  0.84649830    -0.02400
C499        C  0.23656923  0.25867867  0.99013620    -0.09100
C500        C  0.23400206  0.30231018  0.97206521     0.07100
C501        C  0.21670153  0.31073406  0.93116333    -0.02800
C502        C  0.20097323  0.27601915  0.91098294    -0.07300
C503        C  0.20230078  0.23263844  0.93096990     0.06200
C504        C  0.22135983  0.22377362  0.96944724    -0.02300
Br505      Br  0.22843895  0.16474489  0.99433301    -0.02000
H506        H  0.25009983  0.25190474  0.02130263     0.10100
H507        H  0.18682400  0.28343061  0.88095598     0.08200
Br508      Br  0.21211614  0.36971977  0.90465503    -0.02400
C509        C  0.23953861  0.94059126  0.93794831    -0.09100
C510        C  0.24177526  0.93714901  0.99011373     0.07100
C511        C  0.22343509  0.96207940  0.02037805    -0.02800
C512        C  0.20401259  0.99006507  0.99819517    -0.07300
C513        C  0.20208015  0.99400407  0.94609384     0.06200
C514        C  0.22020769  0.96883497  0.91580078    -0.02300
Br515      Br  0.22158955  0.97404772  0.84422389    -0.02000
H516        H  0.25359420  0.92237726  0.91404110     0.10100
H517        H  0.19018257  0.00881846  0.02203130     0.08200
Br518      Br  0.22258136  0.95875511  0.09212875    -0.02400
C519        C  0.07781163  0.93946420  0.81386153    -0.09100
C520        C  0.06862126  0.98391850  0.81192815     0.07100
C521        C  0.04263020  0.99272819  0.79053451    -0.02800
C522        C  0.02793715  0.95830841  0.76742500    -0.07300
C523        C  0.03833094  0.91484642  0.76605632     0.06200
C524        C  0.06279910  0.90509784  0.79149284    -0.02300
Br525      Br  0.07718499  0.84555466  0.79381557    -0.02000
H526        H  0.09727039  0.93158324  0.83123901     0.10100
H527        H  0.00928404  0.96618886  0.74739999     0.08200
Br528      Br  0.02708177  0.05125495  0.78642574    -0.02400
C529        C  0.74617464  0.97832663  0.39983803    -0.09100
C530        C  0.74060668  0.93254911  0.40347560     0.07100
C531        C  0.71490630  0.91870702  0.42224268    -0.02800
C532        C  0.69594598  0.95046008  0.43939085    -0.07300
C533        C  0.70217843  0.99620320  0.43838799     0.06200
C534        C  0.72732475  0.01004510  0.41704631    -0.02300
Br535      Br  0.73672993  0.07178392  0.40841466    -0.02000
H536        H  0.76555997  0.98952650  0.38440661     0.10100
H537        H  0.67653945  0.93925466  0.45470539     0.08200
Br538      Br  0.70415943  0.85712126  0.42302402    -0.02400
C539        C  0.83123105  0.77356304  0.49745295    -0.09100
C540        C  0.82960308  0.73023868  0.47747420     0.07100
C541        C  0.80996571  0.72128718  0.44010288    -0.02800
C542        C  0.79482988  0.75626748  0.41941664    -0.07300
C543        C  0.79820169  0.80009850  0.43643748     0.06200
C544        C  0.81566236  0.80844579  0.47717744    -0.02300
Br545      Br  0.82096752  0.86762865  0.50267774    -0.02000
H546        H  0.84579260  0.78089033  0.52685728     0.10100
H547        H  0.78122436  0.74953028  0.38834890     0.08200
Br548      Br  0.80268218  0.66202198  0.41616485    -0.02400
C549        C  0.97924728  0.71831145  0.65172002    -0.09100
C550        C  0.95363419  0.72884127  0.63085815     0.07100
C551        C  0.94330258  0.77270075  0.63677460    -0.02800
C552        C  0.95907837  0.80521743  0.66110307    -0.07300
C553        C  0.98507848  0.79495232  0.68001314     0.06200
C554        C  0.99484025  0.75084147  0.67625601    -0.02300
Br555      Br  0.02998779  0.73417426  0.70257562    -0.02000
H556        H  0.98736455  0.68478997  0.64831925     0.10100
H557        H  0.95178452  0.83931306  0.66218668     0.08200
Br558      Br  0.90935749  0.79187012  0.60742372    -0.02400
C559        C  0.81451723  0.51170341  0.40872389    -0.09100
C560        C  0.83519042  0.49414471  0.43958945     0.07100
C561        C  0.83557419  0.44761213  0.44829126    -0.02800
C562        C  0.81527003  0.42022915  0.42751631    -0.07300
C563        C  0.79440048  0.43784042  0.39726329     0.06200
C564        C  0.79424580  0.48427603  0.38780982    -0.02300
Br565      Br  0.76587660  0.51316699  0.34999106    -0.02000
H566        H  0.81356285  0.54731011  0.40199296     0.10100
H567        H  0.81610944  0.38464610  0.43443877     0.08200
Br568      Br  0.86399907  0.41864654  0.48582855    -0.02400
C569        C  0.08712026  0.26988693  0.76650163    -0.09100
C570        C  0.07924504  0.22483048  0.76572184     0.07100
C571        C  0.05663714  0.21217667  0.73617103    -0.02800
C572        C  0.04122950  0.24465434  0.71125517    -0.07300
C573        C  0.04812094  0.28993834  0.71461221     0.06200
C574        C  0.07161695  0.30238653  0.74174859    -0.02300
Br575      Br  0.08166346  0.36356246  0.75093484    -0.02000
H576        H  0.10461682  0.28019528  0.78857715     0.10100
H577        H  0.02304818  0.23471910  0.69084924     0.08200
Br578      Br  0.04632665  0.15120450  0.72710534    -0.02400
C579        C  0.99246163  0.45682744  0.66124344    -0.09100
C580        C  0.99546720  0.41567363  0.63676167     0.07100
C581        C  0.98472957  0.41064412  0.58818031    -0.02800
C582        C  0.97059562  0.44616626  0.56577628    -0.07300
C583        C  0.96686104  0.48665811  0.59125658     0.06200
C584        C  0.97825093  0.49204506  0.63907641    -0.02300
Br585      Br  0.97177998  0.54468564  0.67827556    -0.02000
H586        H  0.99983199  0.46068187  0.69918316     0.10100
H587        H  0.96134899  0.44146575  0.52937484     0.08200
Br588      Br  0.98554104  0.35479088  0.55340312    -0.02400
C589        C  0.29977929  0.04813720  0.43718709    -0.09100
C590        C  0.29508076  0.04966802  0.48905361     0.07100
C591        C  0.31125842  0.02188688  0.52021208    -0.02800
C592        C  0.33056434  0.99273425  0.49907019    -0.07300
C593        C  0.33494436  0.99099037  0.44725551     0.06200
C594        C  0.31935588  0.01952564  0.41619368    -0.02300
Br595      Br  0.32218297  0.01970715  0.34445524    -0.02000
H596        H  0.28776962  0.06881468  0.41228651     0.10100
H597        H  0.34258169  0.97164809  0.52355709     0.08200
Br598      Br  0.30970121  0.02299892  0.59198406    -0.02400
C599        C  0.21599171  0.05747051  0.63475459    -0.09100
C600        C  0.23037604  0.09640818  0.62236863     0.07100
C601        C  0.22971994  0.13296961  0.65519123    -0.02800
C602        C  0.21371634  0.13112869  0.69830664    -0.07300
C603        C  0.19770885  0.09337102  0.70970548     0.06200
C604        C  0.19958114  0.05560637  0.67790290    -0.02300
Br605      Br  0.17895728  0.00179439  0.68822735    -0.02000
H606        H  0.21624482  0.02934999  0.60929306     0.10100
H607        H  0.21340469  0.16011682  0.72248995     0.08200
Br608      Br  0.25005787  0.18671173  0.64240592    -0.02400
C609        C  0.22364537  0.38478975  0.21223742    -0.09100
C610        C  0.19528408  0.39398754  0.20841308     0.07100
C611        C  0.18447814  0.40383529  0.16050522    -0.02800
C612        C  0.20152822  0.40206433  0.11841126    -0.07300
C613        C  0.22933465  0.39091074  0.12240821     0.06200
C614        C  0.24052513  0.38284558  0.16981148    -0.02300
Br615      Br  0.27798994  0.36466176  0.17782287    -0.02000
H616        H  0.23265292  0.37698778  0.24814087     0.10100
H617        H  0.19275118  0.40785471  0.08180017     0.08200
Br618      Br  0.14670379  0.41854480  0.14819458    -0.02400
C619        C  0.07787466  0.39255792  0.56594904    -0.09100
C620        C  0.07779802  0.35678199  0.53172578     0.07100
C621        C  0.06219685  0.31830413  0.54390915    -0.02800
C622        C  0.04736382  0.31667939  0.58884766    -0.07300
C623        C  0.04650973  0.35331395  0.62135179     0.06200
C624        C  0.06230316  0.39123996  0.60997810    -0.02300
Br625      Br  0.06370399  0.44184800  0.65364327    -0.02000
H626        H  0.08989471  0.42217217  0.55829274     0.10100
H627        H  0.03494211  0.28763472  0.59713621     0.08200
Br628      Br  0.05775741  0.26828340  0.49971401    -0.02400
C629        C  0.20472686  0.16556177  0.44463731    -0.09100
C630        C  0.23044193  0.17519216  0.46512436     0.07100
C631        C  0.24035122  0.21917484  0.46391537    -0.02800
C632        C  0.22405081  0.25318484  0.44387182    -0.07300
C633        C  0.19759809  0.24405846  0.42552181     0.06200
C634        C  0.18833234  0.19934380  0.42463772    -0.02300
Br635      Br  0.15376119  0.18167239  0.39640406    -0.02000
H636        H  0.19689762  0.13174198  0.44599348     0.10100
H637        H  0.23162328  0.28715648  0.44470978     0.08200
Br638      Br  0.27509057  0.23458687  0.49263685    -0.02400
C639        C  0.24203317  0.50370578  0.50140696    -0.09100
C640        C  0.23939239  0.54956612  0.49164541     0.07100
C641        C  0.21594403  0.56466150  0.46555689    -0.02800
C642        C  0.19648102  0.53390115  0.44812987    -0.07300
C643        C  0.19989231  0.48796025  0.45597247     0.06200
C644        C  0.22264168  0.47305313  0.48383607    -0.02300
Br645      Br  0.22752976  0.41132585  0.50093831    -0.02000
H646        H  0.25947699  0.49147984  0.52235331     0.10100
H647        H  0.17890800  0.54587357  0.42735478     0.08200
Br648      Br  0.20845204  0.62681619  0.45478422    -0.02400
C649        C  0.94683988  0.61003628  0.32576209    -0.09100
C650        C  0.95727085  0.62994848  0.36941830     0.07100
C651        C  0.98307032  0.65151780  0.36672520    -0.02800
C652        C  0.99786946  0.65177158  0.32158084    -0.07300
C653        C  0.98763607  0.63072270  0.27865511     0.06200
C654        C  0.96186989  0.60984334  0.28108142    -0.02300
Br655      Br  0.94737615  0.57725814  0.22572462    -0.02000
H656        H  0.92730243  0.59286213  0.32679474     0.10100
H657        H  0.01768155  0.66793661  0.32003653     0.08200
Br658      Br  0.99901015  0.68225149  0.42250687    -0.02400
C659        C  0.02791989  0.52349464  0.26518365    -0.09100
C660        C  0.03743222  0.56759522  0.26777452     0.07100
C661        C  0.06103998  0.57711445  0.29594578    -0.02800
C662        C  0.07556981  0.54247039  0.31885521    -0.07300
C663        C  0.06747332  0.49788905  0.31257271     0.06200
C664        C  0.04281461  0.48862273  0.28710544    -0.02300
Br665      Br  0.02903015  0.42897479  0.28026844    -0.02000
H666        H  0.00992699  0.51579370  0.24309857     0.10100
H667        H  0.09441587  0.55012120  0.33845972     0.08200
Br668      Br  0.07586974  0.63628517  0.29938094    -0.02400
C669        C  0.72406329  0.52376628  0.87721538    -0.09100
C670        C  0.74245171  0.54334399  0.91134153     0.07100
C671        C  0.73808125  0.53635708  0.96304081    -0.02800
C672        C  0.71616352  0.50989966  0.97909525    -0.07300
C673        C  0.69847465  0.48909948  0.94492946     0.06200
C674        C  0.70228292  0.49689552  0.89346232    -0.02300
Br675      Br  0.67789548  0.47327896  0.84381367    -0.02000
H676        H  0.72665893  0.52922235  0.83747073     0.10100
H677        H  0.71373186  0.50383720  0.01878330     0.08200
Br678      Br  0.76233070  0.55784108  0.01422444    -0.02400
C679        C  0.84826270  0.54929930  0.72562794    -0.09100
C680        C  0.83942982  0.57822890  0.68769276     0.07100
C681        C  0.81482896  0.60241027  0.69418306    -0.02800
C682        C  0.80028977  0.59909946  0.73903051    -0.07300
C683        C  0.81007694  0.57250467  0.77802640     0.06200
C684        C  0.83399433  0.54694064  0.77103491    -0.02300
Br685      Br  0.84901146  0.51152051  0.82404032    -0.02000
H686        H  0.86717940  0.53070569  0.72116430     0.10100
H687        H  0.78217823  0.61950659  0.74462431     0.08200
Br688      Br  0.80046862  0.64138371  0.64362883    -0.02400
C689        C  0.85407844  0.87575676  0.23534162    -0.09100
C690        C  0.84037979  0.88822522  0.19139953     0.07100
C691        C  0.81244644  0.90078204  0.19460937    -0.02800
C692        C  0.79882877  0.89935326  0.24087261    -0.07300
C693        C  0.81235659  0.88481407  0.28419857     0.06200
C694        C  0.84048314  0.87373450  0.28116333    -0.02300
Br695      Br  0.86207979  0.85636905  0.33801888    -0.02000
H696        H  0.87550953  0.86619979  0.23401267     0.10100
H697        H  0.77729695  0.90821631  0.24263178     0.08200
Br698      Br  0.79175182  0.92077472  0.13793029    -0.02400
C699        C  0.94884176  0.88516409  0.82438033    -0.09100
C700        C  0.95582833  0.85810873  0.86538221     0.07100
C701        C  0.97869118  0.82920995  0.86087475    -0.02800
C702        C  0.99395688  0.82819133  0.81636525    -0.07300
C703        C  0.98697235  0.85549832  0.77591903     0.06200
C704        C  0.96417154  0.88396978  0.78002750    -0.02300
Br705      Br  0.95386320  0.92267828  0.72633789    -0.02000
H706        H  0.93143732  0.90754993  0.82688803     0.10100
H707        H  0.01191346  0.80702495  0.81368492     0.08200
Br708      Br  0.99174737  0.79339769  0.91532079    -0.02400
C709        C  0.85537605  0.70160579  0.94904253    -0.09100
C710        C  0.83990699  0.73650354  0.97018649     0.07100
C711        C  0.81100420  0.73126728  0.97344619    -0.02800
C712        C  0.79850281  0.69304164  0.95328113    -0.07300
C713        C  0.81417414  0.65981522  0.92970733     0.06200
C714        C  0.84296696  0.66383003  0.92918731    -0.02300
Br715      Br  0.86694580  0.61856500  0.90277934    -0.02000
H716        H  0.87753614  0.70363216  0.94710054     0.10100
H717        H  0.77634867  0.69016523  0.95421236     0.08200
Br718      Br  0.78705280  0.77449541  0.00367868    -0.02400
C719        C  0.98382237  0.72477519  0.19323169    -0.09100
C720        C  0.98187693  0.68109600  0.17473978     0.07100
C721        C  0.96526674  0.67295048  0.13265717    -0.02800
C722        C  0.95117142  0.70794524  0.10978340    -0.07300
C723        C  0.95387419  0.75208516  0.12670009     0.06200
C724        C  0.97035089  0.76031293  0.16928726    -0.02300
Br725      Br  0.97827216  0.81947774  0.19276588    -0.02000
H726        H  0.99757210  0.73179949  0.22399977     0.10100
H727        H  0.93862859  0.70062288  0.07743649     0.08200
Br728      Br  0.96269623  0.61508490  0.10217051    -0.02400
C729        C  0.83567672  0.03079391  0.94997529    -0.09100
C730        C  0.83181095  0.98473161  0.94328959     0.07100
C731        C  0.80916784  0.96991920  0.91510170    -0.02800
C732        C  0.79060450  0.00080193  0.89541867    -0.07300
C733        C  0.79378745  0.04681197  0.90356047     0.06200
C734        C  0.81685491  0.06179460  0.93072998    -0.02300
Br735      Br  0.82452348  0.12395855  0.94080983    -0.02000
H736        H  0.85314718  0.04270476  0.97108175     0.10100
H737        H  0.77326006  0.98858126  0.87419700     0.08200
Br738      Br  0.80314983  0.90800614  0.90023053    -0.02400
C739        C  0.03831857  0.14799667  0.08008128    -0.09100
C740        C  0.04797490  0.12448118  0.12171366     0.07100
C741        C  0.07319097  0.10200082  0.11835367    -0.02800
C742        C  0.08828541  0.10303101  0.07374366    -0.07300
C743        C  0.07843560  0.12559334  0.03122814     0.06200
C744        C  0.05318739  0.14876609  0.03508403    -0.02300
Br745      Br  0.03812227  0.18315275  0.98123758    -0.02000
H746        H  0.01887219  0.16534987  0.08254947     0.10100
H747        H  0.10742027  0.08470347  0.07185784     0.08200
Br748      Br  0.08690412  0.06721000  0.17278300    -0.02400
C749        C  0.08318416  0.20645262  0.28956984    -0.09100
C750        C  0.08151134  0.24970560  0.26937335     0.07100
C751        C  0.06683829  0.25537005  0.22399056    -0.02800
C752        C  0.05321065  0.21887028  0.20197275    -0.07300
C753        C  0.05372155  0.17652886  0.22424592     0.06200
C754        C  0.06950206  0.17040419  0.26777446    -0.02300
Br755      Br  0.07220772  0.11352639  0.30047969    -0.02000
H756        H  0.09476969  0.20056497  0.32342032     0.10100
H757        H  0.04068034  0.22426324  0.16914144     0.08200
Br758      Br  0.06228875  0.31225160  0.19213428    -0.02400
C759        C  0.98274417  0.07075270  0.09523262    -0.09100
C760        C  0.99983554  0.05797230  0.13481446     0.07100
C761        C  0.00207563  0.01243133  0.14685747    -0.02800
C762        C  0.98563999  0.98106689  0.12257399    -0.07300
C763        C  0.96672537  0.99404576  0.08576551     0.06200
C764        C  0.96637242  0.03922673  0.07034229    -0.02300
Br765      Br  0.94192367  0.06113607  0.01985159    -0.02000
H766        H  0.98056016  0.10577118  0.08611480     0.10100
H767        H  0.98686846  0.94647373  0.13411402     0.08200
Br768      Br  0.02590517  0.99180163  0.19894531    -0.02400
loop_ 
_geom_bond_atom_site_label_1 
_geom_bond_atom_site_label_2 
_geom_bond_distance 
_geom_bond_site_symmetry_2 
_ccdc_geom_bond_type 
N1            C5   1.358       .  A
N1            C2   1.362       .  A
N1          C740   1.439       .  S
C2            C3   1.383       .  A
C2          C753   1.485       .  S
C3            C4   1.372   1_455  A
C3            H6   1.082       .  S
C4            C5   1.380   1_655  A
C4            H7   1.082       .  S
C5          C760   1.480   1_455  S
Zn8          O12   1.974       .  S
Zn8          O13   2.034       .  S
Zn8          O17   2.020   1_554  S
Zn8          O24   2.030       .  S
Zn9          O12   1.949       .  S
Zn9          O14   2.030   1_554  S
Zn9          O16   1.995   1_554  S
Zn9          O20   2.024       .  S
Zn10         O12   1.968   1_556  S
Zn10         O15   2.042       .  S
Zn10         O18   2.036       .  S
Zn10         O21   2.039   1_556  S
Zn11         O12   1.951       .  S
Zn11         O19   2.010       .  S
Zn11         O22   2.023       .  S
Zn11         O23   2.005       .  S
O13          C25   1.273   1_554  A
O14          C26   1.275       .  A
O15          C27   1.277       .  A
O16          C25   1.273       .  A
O17          C27   1.275       .  A
O18          C26   1.277       .  A
O19          C28   1.275       .  A
O20          C29   1.275       .  A
O21          C28   1.275       .  A
O22          C29   1.271       .  A
O23          C30   1.274       .  A
O24          C30   1.274       .  A
C25         C710   1.492       .  S
C26         C700   1.488       .  S
C27         C730   1.482       .  S
C28         C763   1.488       .  S
C29         C723   1.490       .  S
C30         C690   1.485       .  S
C31          N32   1.365       .  A
C31          N36   1.364       .  A
C31         C670   1.487       .  S
N32          C33   1.360       .  A
C33          N34   1.351       .  A
C33         C713   1.476       .  S
N34          C35   1.348       .  A
C35          N36   1.356       .  A
C35         C683   1.462       .  S
N37          C41   1.357       .  A
N37          C38   1.362       .  A
N37         C653   1.443   1_455  S
C38          C39   1.383       .  A
C38         C720   1.480   1_455  S
C39          C40   1.371       .  A
C39          H42   1.082       .  S
C40          C41   1.379       .  A
C40          H43   1.082       .  S
C41         C660   1.475       .  S
Zn44         O48   1.971       .  S
Zn44         O49   2.026       .  S
Zn44         O53   2.049       .  S
Zn44         O60   2.032       .  S
Zn45         O48   1.966       .  S
Zn45         O50   2.034       .  S
Zn45         O52   2.037       .  S
Zn45         O56   2.045       .  S
Zn46         O48   1.963       .  S
Zn46         O51   2.007       .  S
Zn46         O54   2.009       .  S
Zn46         O57   2.011       .  S
Zn47         O48   1.956       .  S
Zn47         O55   2.011       .  S
Zn47         O58   2.035       .  S
Zn47         O59   2.031       .  S
O49          C61   1.275       .  A
O50          C62   1.275       .  A
O51          C63   1.272       .  A
O52          C61   1.277       .  A
O53          C63   1.276       .  A
O54          C62   1.273       .  A
O55          C64   1.272       .  A
O56          C65   1.274       .  A
O57          C64   1.272       .  A
O58          C65   1.277       .  A
O59          C66   1.275       .  A
O60          C66   1.277       .  A
C61         C663   1.479       .  S
C62         C610   1.495       .  S
C63         C643   1.481       .  S
C64         C633   1.481       .  S
C65         C750   1.500       .  S
C66         C620   1.496       .  S
C67          N68   1.367       .  A
C67          N72   1.363       .  A
C67         C590   1.495       .  S
N68          C69   1.359       .  A
C69          N70   1.349       .  A
C69         C630   1.465       .  S
N70          C71   1.351       .  A
C71          N72   1.358       .  A
C71         C600   1.468       .  S
N73          C77   1.360       .  A
N73          C74   1.360       .  A
N73         C623   1.442       .  S
C74          C75   1.380       .  A
C74         C573   1.476       .  S
C75          C76   1.371   1_455  A
C75          H78   1.082   1_455  S
C76          C77   1.382   1_655  A
C76          H79   1.082       .  S
C77         C580   1.480   1_455  S
Zn80         O84   1.959       .  S
Zn80         O85   2.028       .  S
Zn80         O89   2.018       .  S
Zn80         O96   2.035       .  S
Zn81         O84   1.973       .  S
Zn81         O86   2.049       .  S
Zn81         O88   2.050       .  S
Zn81         O92   2.035       .  S
Zn82         O84   1.962       .  S
Zn82         O87   2.016       .  S
Zn82         O90   2.012       .  S
Zn82         O93   1.996       .  S
Zn83         O84   1.968       .  S
Zn83         O91   2.025       .  S
Zn83         O94   2.014       .  S
Zn83         O95   2.023       .  S
O85          C97   1.277       .  A
O86          C98   1.278       .  A
O87          C99   1.272       .  A
O88          C97   1.278       .  A
O89          C99   1.274       .  A
O90          C98   1.272       .  A
O91         C100   1.273       .  A
O92         C101   1.275       .  A
O93         C100   1.271       .  A
O94         C101   1.273       .  A
O95         C102   1.273       .  A
O96         C102   1.275       .  A
C97         C650   1.493       .  S
C98         C550   1.486       .  S
C99         C540   1.480       .  S
C100        C680   1.472       .  S
C101        C583   1.471       .  S
C102        C560   1.491       .  S
C103        N104   1.364       .  A
C103        N108   1.364       .  A
C103        C530   1.480       .  S
N104        C105   1.360       .  A
C105        N106   1.352       .  A
C105        C693   1.480       .  S
N106        C107   1.351       .  A
C107        N108   1.358       .  A
C107        C543   1.468       .  S
N109        C113   1.355       .  A
N109        C110   1.358       .  A
N109        C703   1.438   1_455  S
C110        C111   1.383       .  A
C110        C553   1.477   1_455  S
C111        C112   1.373       .  A
C111        H114   1.082       .  S
C112        C113   1.380       .  A
C112        H115   1.082       .  S
C113        C523   1.474       .  S
Zn116       O120   1.956       .  S
Zn116       O121   1.995       .  S
Zn116       O125   2.015       .  S
Zn116       O132   2.007       .  S
Zn117       O120   1.966       .  S
Zn117       O122   2.006       .  S
Zn117       O124   2.028       .  S
Zn117       O128   2.022       .  S
Zn118       O120   1.956       .  S
Zn118       O123   2.017       .  S
Zn118       O126   2.021       .  S
Zn118       O129   2.026       .  S
Zn119       O120   1.966       .  S
Zn119       O127   2.049       .  S
Zn119       O130   2.032       .  S
Zn119       O131   2.050       .  S
O121        C133   1.272       .  A
O122        C134   1.271       .  A
O123        C135   1.273       .  A
O124        C133   1.272       .  A
O125        C135   1.272       .  A
O126        C134   1.274       .  A
O127        C136   1.278       .  A
O128        C137   1.276       .  A
O129        C136   1.276       .  A
O130        C137   1.274       .  A
O131        C138   1.278       .  A
O132        C138   1.272       .  A
C133        C603   1.488       .  S
C134        C513   1.483   1_545  S
C135        C503   1.483       .  S
C136        C743   1.493   1_556  S
C137        C520   1.487   1_545  S
C138        C570   1.481       .  S
C139        N140   1.365   1_554  A
C139        N144   1.366       .  A
C139        C493   1.490   1_554  S
N140        C141   1.359   1_556  A
C141        N142   1.351       .  A
C141        C500   1.469   1_554  S
N142        C143   1.352       .  A
C143        N144   1.361       .  A
C143        C613   1.472       .  S
N145        C149   1.356       .  A
N145        C146   1.359       .  A
N145        C463   1.440       .  S
C146        C147   1.382       .  A
C146        C470   1.478       .  S
C147        C148   1.373       .  A
C147        H150   1.082       .  S
C148        C149   1.380       .  A
C148        H151   1.082       .  S
C149        C483   1.474       .  S
Zn152       O156   1.959       .  S
Zn152       O157   2.016       .  S
Zn152       O161   2.003       .  S
Zn152       O168   2.001       .  S
Zn153       O156   1.955       .  S
Zn153       O158   2.010       .  S
Zn153       O160   1.993       .  S
Zn153       O164   2.007       .  S
Zn154       O156   1.967       .  S
Zn154       O159   2.037       .  S
Zn154       O162   2.047       .  S
Zn154       O165   2.044   1_554  S
Zn155       O156   1.958   1_556  S
Zn155       O163   2.023       .  S
Zn155       O166   2.027       .  S
Zn155       O167   2.030       .  S
O157        C169   1.271       .  A
O158        C170   1.272       .  A
O159        C171   1.275       .  A
O160        C169   1.271       .  A
O161        C171   1.273       .  A
O162        C170   1.279       .  A
O163        C172   1.276       .  A
O164        C173   1.269   1_554  A
O165        C172   1.277       .  A
O166        C173   1.276       .  A
O167        C174   1.274       .  A
O168        C174   1.271   1_554  A
C169        C420   1.477       .  S
C170        C453   1.491       .  S
C171        C480   1.483       .  S
C172        C430   1.495       .  S
C173        C443   1.493       .  S
C174        C673   1.481       .  S
C175        N176   1.366       .  A
C175        N180   1.367       .  A
C175        C733   1.486       .  S
N176        C177   1.358       .  A
C177        N178   1.349       .  A
C177        C413   1.473       .  S
N178        C179   1.350       .  A
C179        N180   1.361       .  A
C179        C440   1.474       .  S
N181        C185   1.360       .  A
N181        C182   1.363       .  A
N181        C390   1.445       .  S
C182        C183   1.384       .  A
C182        C450   1.483       .  S
C183        C184   1.371       .  A
C183        H186   1.082       .  S
C184        C185   1.379       .  A
C184        H187   1.082       .  S
C185        C403   1.479       .  S
Zn188       O192   1.959       .  S
Zn188       O193   2.005       .  S
Zn188       O197   2.002       .  S
Zn188       O204   2.014       .  S
Zn189       O192   1.967       .  S
Zn189       O194   2.063       .  S
Zn189       O196   2.053       .  S
Zn189       O200   2.035       .  S
Zn190       O192   1.958       .  S
Zn190       O195   2.037       .  S
Zn190       O198   2.040       .  S
Zn190       O201   2.031       .  S
Zn191       O192   1.965       .  S
Zn191       O199   2.015       .  S
Zn191       O202   2.023       .  S
Zn191       O203   2.002       .  S
O193        C205   1.273       .  A
O194        C206   1.280       .  A
O195        C207   1.276       .  A
O196        C205   1.276       .  A
O197        C207   1.270       .  A
O198        C206   1.277       .  A
O199        C208   1.271       .  A
O200        C209   1.278       .  A
O201        C208   1.277       .  A
O202        C209   1.274       .  A
O203        C210   1.272       .  A
O204        C210   1.271       .  A
C205        C400   1.481       .  S
C206        C370   1.489       .  S
C207        C593   1.487       .  S
C208        C383   1.488       .  S
C209        C473   1.484       .  S
C210        C363   1.471       .  S
C211        N212   1.365       .  A
C211        N216   1.364       .  A
C211        C640   1.487       .  S
N212        C213   1.360       .  A
C213        N214   1.354       .  A
C213        C380   1.476       .  S
N214        C215   1.353       .  A
C215        N216   1.358       .  A
C215        C353   1.471       .  S
N217        C221   1.358       .  A
N217        C218   1.362       .  A
N217        C433   1.442       .  S
C218        C219   1.382       .  A
C218        C330   1.482       .  S
C219        C220   1.374       .  A
C219        H222   1.082       .  S
C220        C221   1.380       .  A
C220        H223   1.082       .  S
C221        C340   1.478       .  S
Zn224       O228   1.964       .  S
Zn224       O229   2.023       .  S
Zn224       O233   2.034       .  S
Zn224       O240   2.032       .  S
Zn225       O228   1.969       .  S
Zn225       O230   2.037       .  S
Zn225       O232   2.037       .  S
Zn225       O236   2.039       .  S
Zn226       O228   1.969       .  S
Zn226       O231   2.024       .  S
Zn226       O234   2.026       .  S
Zn226       O237   2.027       .  S
Zn227       O228   1.965       .  S
Zn227       O235   2.011       .  S
Zn227       O238   2.034       .  S
Zn227       O239   2.027       .  S
O229        C241   1.275       .  A
O230        C242   1.276       .  A
O231        C243   1.273       .  A
O232        C241   1.276       .  A
O233        C243   1.275       .  A
O234        C242   1.275       .  A
O235        C244   1.275       .  A
O236        C245   1.276       .  A
O237        C244   1.273       .  A
O238        C245   1.275       .  A
O239        C246   1.272       .  A
O240        C246   1.277       .  A
C241        C460   1.478   1_556  S
C242        C343   1.485       .  S
C243        C490   1.486       .  S
C244        C350   1.483       .  S
C245        C320   1.496       .  S
C246        C310   1.498       .  S
C247        N248   1.359       .  A
C247        N252   1.367   1_554  A
C247        C510   1.486   1_554  S
N248        C249   1.353       .  A
C249        N250   1.352       .  A
C249        C360   1.461       .  S
N250        C251   1.354       .  A
C251        N252   1.362   1_554  A
C251        C313   1.480   1_554  S
N253        C257   1.361       .  A
N253        C254   1.366       .  A
N253        C373   1.446       .  S
C254        C255   1.383       .  A
C254        C323   1.487       .  S
C255        C256   1.370       .  A
C255        H258   1.082       .  S
C256        C257   1.379       .  A
C256        H259   1.082       .  S
C257        C303   1.480       .  S
Zn260       O264   1.969       .  S
Zn260       O265   2.040       .  S
Zn260       O269   2.042       .  S
Zn260       O276   2.022       .  S
Zn261       O264   1.960       .  S
Zn261       O266   2.015       .  S
Zn261       O268   2.029       .  S
Zn261       O272   2.029       .  S
Zn262       O264   1.968       .  S
Zn262       O267   2.005       .  S
Zn262       O270   2.026       .  S
Zn262       O273   2.027       .  S
Zn263       O264   1.967       .  S
Zn263       O271   2.032       .  S
Zn263       O274   2.041       .  S
Zn263       O275   2.052       .  S
O265        C277   1.276       .  A
O266        C278   1.272       .  A
O267        C279   1.272       .  A
O268        C277   1.275       .  A
O269        C279   1.276       .  A
O270        C278   1.275       .  A
O271        C280   1.274       .  A
O272        C281   1.275       .  A
O273        C280   1.273       .  A
O274        C281   1.277       .  A
O275        C282   1.279       .  A
O276        C282   1.274       .  A
C277        C300   1.489   1_545  S
C278        C410   1.494       .  S
C279        C533   1.482   1_545  S
C280        C290   1.474       .  S
C281        C333   1.491       .  S
C282        C393   1.497       .  S
C283        N284   1.368       .  A
C283        N288   1.363       .  A
C283        C563   1.489       .  S
N284        C285   1.363       .  A
C285        N286   1.353       .  A
C285        C293   1.487       .  S
N286        C287   1.351       .  A
C287        N288   1.357       .  A
C287        C423   1.466       .  S
C289        C290   1.403       .  A
C289        C294   1.406       .  A
C289        H296   1.083       .  S
C290        C291   1.404       .  A
C291        C292   1.397       .  A
C291       Br298   1.919       .  S
C292        C293   1.408       .  A
C292        H297   1.084       .  S
C293        C294   1.415       .  A
C294       Br295   1.919       .  S
C299        C300   1.406       .  A
C299        C304   1.402       .  A
C299        H306   1.084       .  S
C300        C301   1.415       .  A
C301        C302   1.403       .  A
C301       Br308   1.920   1_565  S
C302        C303   1.402       .  A
C302        H307   1.084       .  S
C303        C304   1.407       .  A
C304       Br305   1.917       .  S
C309        C310   1.408       .  A
C309        C314   1.397   1_556  A
C309        H316   1.083   1_556  S
C310        C311   1.423       .  A
C311        C312   1.406       .  A
C311       Br318   1.922       .  S
C312        C313   1.401       .  A
C312        H317   1.084       .  S
C313        C314   1.408   1_556  A
C314       Br315   1.922       .  S
C319        C320   1.411       .  A
C319        C324   1.406       .  A
C319        H326   1.083       .  S
C320        C321   1.416       .  A
C321        C322   1.401       .  A
C321       Br328   1.923       .  S
C322        C323   1.405       .  A
C322        H327   1.084       .  S
C323        C324   1.408       .  A
C324       Br325   1.916       .  S
C329        C330   1.402       .  A
C329        C334   1.400       .  A
C329        H336   1.083       .  S
C330        C331   1.408       .  A
C331        C332   1.406       .  A
C331       Br338   1.918       .  S
C332        C333   1.409       .  A
C332        H337   1.083       .  S
C333        C334   1.414       .  A
C334       Br335   1.922       .  S
C339        C340   1.401       .  A
C339        C344   1.401       .  A
C339        H346   1.083       .  S
C340        C341   1.407       .  A
C341        C342   1.401       .  A
C341       Br348   1.917       .  S
C342        C343   1.406       .  A
C342        H347   1.083       .  S
C343        C344   1.413       .  A
C344       Br345   1.920       .  S
C349        C350   1.405       .  A
C349        C354   1.394       .  A
C349        H356   1.084       .  S
C350        C351   1.416       .  A
C351        C352   1.404       .  A
C351       Br358   1.920       .  S
C352        C353   1.402       .  A
C352        H357   1.083       .  S
C353        C354   1.404       .  A
C354       Br355   1.917       .  S
C359        C360   1.401       .  A
C359        C364   1.399       .  A
C359        H366   1.084       .  S
C360        C361   1.403       .  A
C361        C362   1.395       .  A
C361       Br368   1.918       .  S
C362        C363   1.404       .  A
C362        H367   1.084       .  S
C363        C364   1.411       .  A
C364       Br365   1.919       .  S
C369        C370   1.406       .  A
C369        C374   1.408       .  A
C369        H376   1.084       .  S
C370        C371   1.412       .  A
C371        C372   1.402       .  A
C371       Br378   1.919       .  S
C372        C373   1.403       .  A
C372        H377   1.084       .  S
C373        C374   1.411       .  A
C374       Br375   1.915       .  S
C379        C380   1.402       .  A
C379        C384   1.405       .  A
C379        H386   1.084       .  S
C380        C381   1.407       .  A
C381        C382   1.395       .  A
C381       Br388   1.917       .  S
C382        C383   1.405       .  A
C382        H387   1.083       .  S
C383        C384   1.419       .  A
C384       Br385   1.921       .  S
C389        C390   1.400       .  A
C389        C394   1.401       .  A
C389        H396   1.083       .  S
C390        C391   1.409       .  A
C391        C392   1.405       .  A
C391       Br398   1.914       .  S
C392        C393   1.409       .  A
C392        H397   1.083       .  S
C393        C394   1.419       .  A
C394       Br395   1.923       .  S
C399        C400   1.404       .  A
C399        C404   1.403   1_565  A
C399        H406   1.084       .  S
C400        C401   1.412   1_565  A
C401        C402   1.401       .  A
C401       Br408   1.919       .  S
C402        C403   1.401       .  A
C402        H407   1.084       .  S
C403        C404   1.409       .  A
C404       Br405   1.919   1_545  S
C409        C410   1.413       .  A
C409        C414   1.403       .  A
C409        H416   1.083       .  S
C410        C411   1.420       .  A
C411        C412   1.396       .  A
C411       Br418   1.924       .  S
C412        C413   1.400       .  A
C412        H417   1.084       .  S
C413        C414   1.405       .  A
C414       Br415   1.919       .  S
C419        C420   1.405       .  A
C419        C424   1.393       .  A
C419        H426   1.084       .  S
C420        C421   1.413       .  A
C421        C422   1.402       .  A
C421       Br428   1.920       .  S
C422        C423   1.402       .  A
C422        H427   1.084       .  S
C423        C424   1.405       .  A
C424       Br425   1.920       .  S
C429        C430   1.410       .  A
C429        C434   1.400       .  A
C429        H436   1.083       .  S
C430        C431   1.418       .  A
C431        C432   1.403       .  A
C431       Br438   1.921       .  S
C432        C433   1.402       .  A
C432        H437   1.082       .  S
C433        C434   1.405       .  A
C434       Br435   1.915       .  S
C439        C440   1.400       .  A
C439        C444   1.405       .  A
C439        H446   1.084       .  S
C440        C441   1.408       .  A
C441        C442   1.393       .  A
C441       Br448   1.922       .  S
C442        C443   1.406       .  A
C442        H447   1.083       .  S
C443        C444   1.423       .  A
C444       Br445   1.922   1_556  S
C449        C450   1.400       .  A
C449        C454   1.404       .  A
C449        H456   1.084       .  S
C450        C451   1.412       .  A
C451        C452   1.399       .  A
C451       Br458   1.921       .  S
C452        C453   1.404       .  A
C452        H457   1.084       .  S
C453        C454   1.419       .  A
C454       Br455   1.920       .  S
C459        C460   1.404       .  A
C459        C464   1.403       .  A
C459        H466   1.083       .  S
C460        C461   1.410       .  A
C461        C462   1.400       .  A
C461       Br468   1.920       .  S
C462        C463   1.402       .  A
C462        H467   1.083       .  S
C463        C464   1.408       .  A
C464       Br465   1.914       .  S
C469        C470   1.402       .  A
C469        C474   1.397       .  A
C469        H476   1.084       .  S
C470        C471   1.408       .  A
C471        C472   1.405       .  A
C471       Br478   1.917       .  S
C472        C473   1.408       .  A
C472        H477   1.083       .  S
C473        C474   1.411       .  A
C474       Br475   1.921       .  S
C479        C480   1.406       .  A
C479        C484   1.396       .  A
C479        H486   1.083       .  S
C480        C481   1.415       .  A
C481        C482   1.403       .  A
C481       Br488   1.921       .  S
C482        C483   1.402       .  A
C482        H487   1.083       .  S
C483        C484   1.404       .  A
C484       Br485   1.919       .  S
C489        C490   1.404       .  A
C489        C494   1.403   1_556  A
C489        H496   1.084   1_556  S
C490        C491   1.413       .  A
C491        C492   1.401       .  A
C491       Br498   1.922       .  S
C492        C493   1.406       .  A
C492        H497   1.083       .  S
C493        C494   1.414   1_556  A
C494       Br495   1.919       .  S
C499        C500   1.400       .  A
C499        C504   1.397       .  A
C499        H506   1.084   1_556  S
C500        C501   1.406       .  A
C501        C502   1.401       .  A
C501       Br508   1.919       .  S
C502        C503   1.408       .  A
C502        H507   1.083       .  S
C503        C504   1.414       .  A
C504       Br505   1.922       .  S
C509        C510   1.404       .  A
C509        C514   1.399       .  A
C509        H516   1.083       .  S
C510        C511   1.417   1_556  A
C511        C512   1.398   1_554  A
C511       Br518   1.923       .  S
C512        C513   1.403       .  A
C512        H517   1.084   1_566  S
C513        C514   1.415       .  A
C514       Br515   1.923       .  S
C519        C520   1.407       .  A
C519        C524   1.399       .  A
C519        H526   1.083       .  S
C520        C521   1.416       .  A
C521        C522   1.401       .  A
C521       Br528   1.914   1_565  S
C522        C523   1.398       .  A
C522        H527   1.083       .  S
C523        C524   1.405       .  A
C524       Br525   1.918       .  S
C529        C530   1.402       .  A
C529        C534   1.399   1_565  A
C529        H536   1.084       .  S
C530        C531   1.411       .  A
C531        C532   1.403       .  A
C531       Br538   1.919       .  S
C532        C533   1.405       .  A
C532        H537   1.083       .  S
C533        C534   1.413   1_565  A
C534       Br535   1.921       .  S
C539        C540   1.406       .  A
C539        C544   1.402       .  A
C539        H546   1.083       .  S
C540        C541   1.412       .  A
C541        C542   1.397       .  A
C541       Br548   1.922       .  S
C542        C543   1.400       .  A
C542        H547   1.084       .  S
C543        C544   1.407       .  A
C544       Br545   1.918       .  S
C549        C550   1.405       .  A
C549        C554   1.401       .  A
C549        H556   1.083       .  S
C550        C551   1.416       .  A
C551        C552   1.403       .  A
C551       Br558   1.921       .  S
C552        C553   1.400       .  A
C552        H557   1.082       .  S
C553        C554   1.409       .  A
C554       Br555   1.920   1_655  S
C559        C560   1.407       .  A
C559        C564   1.403       .  A
C559        H566   1.083       .  S
C560        C561   1.414       .  A
C561        C562   1.402       .  A
C561       Br568   1.921       .  S
C562        C563   1.405       .  A
C562        H567   1.083       .  S
C563        C564   1.415       .  A
C564       Br565   1.922       .  S
C569        C570   1.404       .  A
C569        C574   1.401       .  A
C569        H576   1.084       .  S
C570        C571   1.410       .  A
C571        C572   1.400       .  A
C571       Br578   1.911       .  S
C572        C573   1.401       .  A
C572        H577   1.084       .  S
C573        C574   1.408       .  A
C574       Br575   1.914       .  S
C579        C580   1.404       .  A
C579        C584   1.396       .  A
C579        H586   1.084       .  S
C580        C581   1.411       .  A
C581        C582   1.404       .  A
C581       Br588   1.915       .  S
C582        C583   1.403       .  A
C582        H587   1.083       .  S
C583        C584   1.405       .  A
C584       Br585   1.920       .  S
C589        C590   1.407       .  A
C589        C594   1.399       .  A
C589        H596   1.083       .  S
C590        C591   1.419       .  A
C591        C592   1.402   1_545  A
C591       Br598   1.922       .  S
C592        C593   1.403       .  A
C592        H597   1.084       .  S
C593        C594   1.415   1_565  A
C594       Br595   1.924       .  S
C599        C600   1.401       .  A
C599        C604   1.404       .  A
C599        H606   1.084       .  S
C600        C601   1.404       .  A
C601        C602   1.392       .  A
C601       Br608   1.922       .  S
C602        C603   1.408       .  A
C602        H607   1.083       .  S
C603        C604   1.419       .  A
C604       Br605   1.921       .  S
C609        C610   1.413       .  A
C609        C614   1.401       .  A
C609        H616   1.083       .  S
C610        C611   1.418       .  A
C611        C612   1.399       .  A
C611       Br618   1.922       .  S
C612        C613   1.400       .  A
C612        H617   1.084       .  S
C613        C614   1.403       .  A
C614       Br615   1.918       .  S
C619        C620   1.410       .  A
C619        C624   1.400       .  A
C619        H626   1.083       .  S
C620        C621   1.419       .  A
C621        C622   1.402       .  A
C621       Br628   1.922       .  S
C622        C623   1.401       .  A
C622        H627   1.083       .  S
C623        C624   1.406       .  A
C624       Br625   1.916       .  S
C629        C630   1.399       .  A
C629        C634   1.397       .  A
C629        H636   1.084       .  S
C630        C631   1.405       .  A
C631        C632   1.400       .  A
C631       Br638   1.918       .  S
C632        C633   1.408       .  A
C632        H637   1.083       .  S
C633        C634   1.415       .  A
C634       Br635   1.923       .  S
C639        C640   1.405       .  A
C639        C644   1.400       .  A
C639        H646   1.083       .  S
C640        C641   1.415       .  A
C641        C642   1.404       .  A
C641       Br648   1.920       .  S
C642        C643   1.403       .  A
C642        H647   1.083       .  S
C643        C644   1.410       .  A
C644       Br645   1.921       .  S
C649        C650   1.408       .  A
C649        C654   1.401       .  A
C649        H656   1.083       .  S
C650        C651   1.416       .  A
C651        C652   1.405       .  A
C651       Br658   1.920       .  S
C652        C653   1.403       .  A
C652        H657   1.081   1_655  S
C653        C654   1.405       .  A
C654       Br655   1.911       .  S
C659        C660   1.403       .  A
C659        C664   1.402       .  A
C659        H666   1.084       .  S
C660        C661   1.406       .  A
C661        C662   1.399       .  A
C661       Br668   1.918       .  S
C662        C663   1.404       .  A
C662        H667   1.084       .  S
C663        C664   1.411       .  A
C664       Br665   1.919       .  S
C669        C670   1.409       .  A
C669        C674   1.401       .  A
C669        H676   1.083       .  S
C670        C671   1.415       .  A
C671        C672   1.398       .  A
C671       Br678   1.922   1_556  S
C672        C673   1.404       .  A
C672        H677   1.084   1_556  S
C673        C674   1.409       .  A
C674       Br675   1.920       .  S
C679        C680   1.404       .  A
C679        C684   1.400       .  A
C679        H686   1.084       .  S
C680        C681   1.411       .  A
C681        C682   1.396       .  A
C681       Br688   1.921       .  S
C682        C683   1.398       .  A
C682        H687   1.084       .  S
C683        C684   1.407       .  A
C684       Br685   1.919       .  S
C689        C690   1.404       .  A
C689        C694   1.394       .  A
C689        H696   1.084       .  S
C690        C691   1.415       .  A
C691        C692   1.404       .  A
C691       Br698   1.920       .  S
C692        C693   1.405       .  A
C692        H697   1.083       .  S
C693        C694   1.413       .  A
C694       Br695   1.924       .  S
C699        C700   1.407       .  A
C699        C704   1.401       .  A
C699        H706   1.083       .  S
C700        C701   1.416       .  A
C701        C702   1.403       .  A
C701       Br708   1.920       .  S
C702        C703   1.400       .  A
C702        H707   1.083   1_655  S
C703        C704   1.405       .  A
C704       Br705   1.915       .  S
C709        C710   1.407       .  A
C709        C714   1.390       .  A
C709        H716   1.083       .  S
C710        C711   1.420       .  A
C711        C712   1.406       .  A
C711       Br718   1.921   1_556  S
C712        C713   1.403       .  A
C712        H717   1.083       .  S
C713        C714   1.409       .  A
C714       Br715   1.924       .  S
C719        C720   1.403       .  A
C719        C724   1.407       .  A
C719        H726   1.084       .  S
C720        C721   1.410       .  A
C721        C722   1.396       .  A
C721       Br728   1.921       .  S
C722        C723   1.405       .  A
C722        H727   1.083       .  S
C723        C724   1.417       .  A
C724       Br725   1.921       .  S
C729        C730   1.405   1_545  A
C729        C734   1.405       .  A
C729        H736   1.084       .  S
C730        C731   1.410       .  A
C731        C732   1.398   1_565  A
C731       Br738   1.921       .  S
C732        C733   1.405       .  A
C732        H737   1.083   1_545  S
C733        C734   1.414       .  A
C734       Br735   1.920       .  S
C739        C740   1.401       .  A
C739        C744   1.404       .  A
C739        H746   1.083       .  S
C740        C741   1.404       .  A
C741        C742   1.401       .  A
C741       Br748   1.913       .  S
C742        C743   1.409       .  A
C742        H747   1.083       .  S
C743        C744   1.416       .  A
C744       Br745   1.919   1_554  S
C749        C750   1.407       .  A
C749        C754   1.398       .  A
C749        H756   1.083       .  S
C750        C751   1.421       .  A
C751        C752   1.410       .  A
C751       Br758   1.920       .  S
C752        C753   1.403       .  A
C752        H757   1.083       .  S
C753        C754   1.410       .  A
C754       Br755   1.921       .  S
C759        C760   1.403       .  A
C759        C764   1.406       .  A
C759        H766   1.083       .  S
C760        C761   1.407   1_655  A
C761        C762   1.397   1_445  A
C761       Br768   1.919   1_545  S
C762        C763   1.406       .  A
C762        H767   1.084       .  S
C763        C764   1.416   1_565  A
C764       Br765   1.920       .  S
