geometry optimzed in LAMMPS
_audit_creation_date              2020-11-30 
_audit_creation_method            'lammps2cif' 
_symmetry_space_group_name_H-M    'P1' 
_symmetry_Int_Tables_number       1 
_symmetry_cell_setting            triclinic 
loop_ 
_symmetry_equiv_pos_as_xyz 
  x,y,z 
_cell_length_a                    30.88440841 
_cell_length_b                    30.594334011926563 
_cell_length_c                    28.577470012526828 
_cell_angle_alpha                 90.03083003351438 
_cell_angle_beta                  89.86635893430815 
_cell_angle_gamma                 120.59619288680861 
loop_ 
_atom_site_label 
_atom_site_type_symbol 
_atom_site_fract_x 
_atom_site_fract_y 
_atom_site_fract_z 
_atom_site_charge 
In1        In  0.79163880  0.60214288  0.24634050     1.36900
C2          C  0.89117301  0.66145313  0.24711121     0.77500
O3          O  0.80238114  0.54522806  0.20724882    -0.60900
O4          O  0.74599217  0.55952727  0.18294160    -0.51800
C5          C  0.74500093  0.52860994  0.30952828     0.70200
O6          O  0.79188026  0.55903221  0.31038075    -0.46700
C7          C  0.75434494  0.66356954  0.24891834     0.74900
O8          O  0.86559755  0.64380115  0.28397107    -0.58600
O9          O  0.76707207  0.65162947  0.21133199    -0.48700
O10         O  0.86573083  0.65116840  0.21006651    -0.55000
C11         C  0.76649695  0.53304498  0.17932570     0.85100
O12         O  0.72206783  0.53858792  0.27883634    -0.56900
O13         O  0.76363916  0.64682327  0.28545881    -0.60200
In14       In  0.79448918  0.98537480  0.24809287     1.36900
C15         C  0.89336362  0.02472437  0.24914136     0.77500
O16         O  0.80185391  0.05411413  0.28323004    -0.60900
O17         O  0.74951137  0.98216456  0.31162612    -0.51800
C18         C  0.74989266  0.01013619  0.18238864     0.70200
O19         O  0.79705916  0.03016443  0.18421115    -0.46700
C20         C  0.75610413  0.88572917  0.24933809     0.74900
O21         O  0.86854887  0.01343528  0.21168693    -0.58600
O22         O  0.76722201  0.91185284  0.28614734    -0.48700
O23         O  0.86746029  0.01381950  0.28600731    -0.55000
C24         C  0.76747111  0.02952095  0.31276712     0.85100
O25         O  0.72610293  0.97472141  0.21140170    -0.56900
O26         O  0.76706939  0.91078783  0.21179490    -0.60200
In27       In  0.66762653  0.73050914  0.25059076     1.36900
C28         C  0.72875744  0.83028832  0.25012129     0.77500
O29         O  0.61004838  0.74106146  0.28782259    -0.60900
O30         O  0.62449427  0.68496716  0.31412987    -0.51800
C31         C  0.59676716  0.68749471  0.18500379     0.70200
O32         O  0.62596523  0.73486174  0.18747567    -0.46700
C33         C  0.72713084  0.69118677  0.24974162     0.74900
O34         O  0.71563731  0.80419536  0.21323572    -0.58600
O35         O  0.71265127  0.70158978  0.28715978    -0.48700
O36         O  0.71337326  0.80511046  0.28753647    -0.55000
C37         C  0.59792339  0.70542083  0.31656220     0.85100
O38         O  0.60649046  0.66244547  0.21377923    -0.56900
O39         O  0.71336295  0.70322012  0.21290562    -0.60200
C40         C  0.58390090  0.18561197  0.46912315    -0.02600
C41         C  0.58523887  0.18656782  0.02894119    -0.02600
In42       In  0.04569980  0.72931125  0.24567893     1.36900
C43         C  0.94627500  0.68882155  0.24703158     0.77500
O44         O  0.04235002  0.66194564  0.27951650    -0.60900
O45         O  0.09271090  0.73409997  0.30840806    -0.51800
C46         C  0.08917910  0.70573188  0.17758118     0.70200
O47         O  0.04202316  0.68334708  0.18217006    -0.46700
C48         C  0.08393756  0.82884403  0.24923227     0.74900
O49         O  0.97191972  0.70511604  0.21007354    -0.58600
O50         O  0.07182208  0.80165034  0.28547469    -0.48700
O51         O  0.97157442  0.69527409  0.28357540    -0.55000
C52         C  0.07661830  0.68706632  0.30885643     0.85100
O53         O  0.11310677  0.74263794  0.20499939    -0.56900
O54         O  0.07373062  0.80485038  0.21113924    -0.60200
In55       In  0.17243671  0.98418129  0.25375794     1.36900
C56         C  0.11148441  0.88429297  0.25117761     0.77500
O57         O  0.22788934  0.97287984  0.29357155    -0.60900
O58         O  0.21398520  0.03012378  0.31767258    -0.51800
C59         C  0.24570725  0.02740702  0.19005727     0.70200
O60         O  0.21564826  0.98011553  0.19147665    -0.46700
C61         C  0.11306698  0.02375235  0.25213651     0.74900
O62         O  0.12494411  0.91140740  0.21485705    -0.58600
O63         O  0.12346151  0.00902997  0.28936672    -0.48700
O64         O  0.12660470  0.90846367  0.28907881    -0.55000
C65         C  0.23978643  0.00897210  0.32168837     0.85100
O66         O  0.23577439  0.05229612  0.21888911    -0.56900
O67         O  0.13071692  0.01575662  0.21548578    -0.60200
In68       In  0.04742221  0.11207592  0.25219806     1.36900
C69         C  0.94829284  0.05186008  0.24987631     0.77500
O70         O  0.04112480  0.17492738  0.21968010    -0.60900
O71         O  0.09127514  0.15557316  0.18810776    -0.51800
C72         C  0.09144411  0.18149320  0.31908904     0.70200
O73         O  0.04430592  0.15332614  0.31658767    -0.46700
C74         C  0.08592211  0.05151380  0.25185097     0.74900
O75         O  0.97290590  0.06388080  0.28745036    -0.58600
O76         O  0.07707149  0.06784085  0.21477407    -0.48700
O77         O  0.97453555  0.06790295  0.21322373    -0.55000
C78         C  0.07427944  0.18535517  0.18892130     0.85100
O79         O  0.11549049  0.17090222  0.28999248    -0.56900
O80         O  0.07260583  0.06381689  0.28890691    -0.60200
C81         C  0.25535180  0.52806197  0.47000671    -0.02600
C82         C  0.25541277  0.52865194  0.02981434    -0.02600
C83         C  0.18876122  0.29818155  0.06463407    -0.17900
C84         C  0.21557269  0.34665063  0.04449125    -0.20100
C85         C  0.20671259  0.38532113  0.05891164     0.20600
C86         C  0.16963550  0.37461216  0.09295742    -0.03000
C87         C  0.14287990  0.32595305  0.11361318    -0.06100
C88         C  0.15292360  0.28767169  0.09982657     0.20900
C89         C  0.10735759  0.31623182  0.14923350     0.19000
C90         C  0.09843690  0.35478182  0.16354324    -0.17500
C91         C  0.12508713  0.40288876  0.14322683    -0.19800
C92         C  0.16083009  0.41312002  0.10803075     0.20500
C93         C  0.18830456  0.46164651  0.08851809    -0.32800
C94         C  0.22390289  0.47338934  0.05181788     0.01200
C95         C  0.23467613  0.43457441  0.04021452    -0.24100
C96         C  0.12846035  0.24041318  0.12283111    -0.28700
C97         C  0.09410257  0.23119173  0.15928578     0.06900
C98         C  0.08281362  0.26883217  0.17131714    -0.27400
H99         H  0.19679570  0.26922391  0.05335469     0.11600
H100        H  0.24350312  0.35399405  0.01785029     0.12700
H101        H  0.07143122  0.34797370  0.19098521     0.11800
H102        H  0.11790779  0.43222227  0.15525251     0.11100
H103        H  0.18245785  0.49023456  0.10435134     0.16400
H104        H  0.26518928  0.44284787  0.01642967     0.12300
H105        H  0.13743017  0.21156187  0.11354134     0.15200
H106        H  0.05673868  0.26220545  0.19964550     0.15000
C107        C  0.24087248  0.34550820  0.35287899    -0.17900
C108        C  0.26234269  0.39466625  0.37056482    -0.20100
C109        C  0.23463971  0.40797356  0.40029580     0.20600
C110        C  0.18520007  0.37142657  0.41288841    -0.03000
C111        C  0.16292712  0.32195135  0.39405157    -0.06100
C112        C  0.19097447  0.30919161  0.36377071     0.20900
C113        C  0.11214469  0.28602791  0.40389620     0.19000
C114        C  0.08485311  0.29944870  0.43414787    -0.17500
C115        C  0.10732806  0.34838425  0.45339925    -0.19800
C116        C  0.15732939  0.38493692  0.44238150     0.20500
C117        C  0.17976540  0.43477455  0.45999532    -0.32800
C118        C  0.23064365  0.47217527  0.44949719     0.01200
C119        C  0.25570403  0.45769305  0.41656422    -0.24100
C120        C  0.16801153  0.26128851  0.34282158    -0.28700
C121        C  0.11670592  0.22635917  0.35001786     0.06900
C122        C  0.08915609  0.23836266  0.38158064    -0.27400
H123        H  0.26285802  0.33630858  0.32962132     0.11600
H124        H  0.30065759  0.42240627  0.36079995     0.12700
H125        H  0.04588827  0.27236139  0.44234016     0.11800
H126        H  0.08532503  0.35788789  0.47631841     0.11100
H127        H  0.15754179  0.44462069  0.48205985     0.16400
H128        H  0.29140229  0.48466693  0.40132827     0.12300
H129        H  0.18943412  0.25251370  0.31838339     0.15200
H130        H  0.04948962  0.21161452  0.38717544     0.15000
C131        C  0.26228663  0.67140869  0.12594990    -0.17900
C132        C  0.24017841  0.69808999  0.14334277    -0.20100
C133        C  0.18999442  0.68215129  0.13282750     0.20600
C134        C  0.16224479  0.63991676  0.10331122    -0.03000
C135        C  0.18506055  0.61363089  0.08492009    -0.06100
C136        C  0.23486193  0.62892347  0.09703784     0.20900
C137        C  0.15738669  0.57079842  0.05629688     0.19000
C138        C  0.10712312  0.55495410  0.04564802    -0.17500
C139        C  0.08416715  0.58055153  0.06438797    -0.19800
C140        C  0.11121591  0.62271446  0.09379454     0.20500
C141        C  0.08771054  0.64648324  0.11568669    -0.32800
C142        C  0.11493398  0.68739628  0.14656741     0.01200
C143        C  0.16646537  0.70614597  0.15339768    -0.24100
C144        C  0.25647304  0.60109979  0.08117504    -0.28700
C145        C  0.23115711  0.55972343  0.04958140     0.06900
C146        C  0.18020063  0.54422487  0.03923982    -0.27400
H147        H  0.30082496  0.68384553  0.13538519     0.11600
H148        H  0.26193425  0.73038476  0.16605101     0.12700
H149        H  0.08529551  0.52223634  0.02342334     0.11800
H150        H  0.04501964  0.56685194  0.05650333     0.11100
H151        H  0.04789040  0.63174835  0.11040757     0.16400
H152        H  0.18762758  0.73738944  0.17738160     0.12300
H153        H  0.29264317  0.61186068  0.09569017     0.15200
H154        H  0.15809314  0.51097976  0.01787587     0.15000
C155        C  0.09784403  0.54170250  0.33897752    -0.17900
C156        C  0.12381206  0.52054476  0.35958345    -0.20100
C157        C  0.16125218  0.54791913  0.39302355     0.20600
C158        C  0.17258603  0.59687746  0.40602828    -0.03000
C159        C  0.14678367  0.61869870  0.38469249    -0.06100
C160        C  0.10930393  0.59081018  0.35104297     0.20900
C161        C  0.15943108  0.66874286  0.39592109     0.19000
C162        C  0.19720454  0.69600420  0.42923978    -0.17500
C163        C  0.22272582  0.67418047  0.45044176    -0.19800
C164        C  0.21098605  0.62470628  0.43872130     0.20500
C165        C  0.23735583  0.60286629  0.45857239    -0.32800
C166        C  0.22494078  0.55218310  0.44796108     0.01200
C167        C  0.18798291  0.52699555  0.41258101    -0.24100
C168        C  0.08494942  0.61291286  0.32874752    -0.28700
C169        C  0.09817703  0.66317460  0.33841645     0.06900
C170        C  0.13511962  0.69088364  0.37251681    -0.27400
H171        H  0.06932559  0.51993346  0.31303490     0.11600
H172        H  0.11466968  0.48270751  0.34922124     0.12700
H173        H  0.20744403  0.73442681  0.43848462     0.11800
H174        H  0.25194045  0.69617127  0.47574920     0.11100
H175        H  0.26835681  0.62570407  0.48190590     0.16400
H176        H  0.18030896  0.49146912  0.39758409     0.12300
H177        H  0.05701832  0.59147955  0.30220583     0.15200
H178        H  0.14577324  0.72984342  0.37990907     0.15000
C179        C  0.35895188  0.01757310  0.07219681    -0.17900
C180        C  0.40654302  0.03944250  0.05102265    -0.20100
C181        C  0.44391718  0.08961901  0.06138974     0.20600
C182        C  0.43270777  0.11814871  0.09257585    -0.03000
C183        C  0.38463896  0.09642838  0.11353797    -0.06100
C184        C  0.34773782  0.04560604  0.10388200     0.20900
C185        C  0.37415406  0.12514966  0.14538465     0.19000
C186        C  0.41146001  0.17507539  0.15597671    -0.17500
C187        C  0.45921945  0.19600462  0.13609247    -0.19800
C188        C  0.47014370  0.16771220  0.10453324     0.20500
C189        C  0.51840103  0.18832125  0.08576504    -0.32800
C190        C  0.53060813  0.16251850  0.05140360     0.01200
C191        C  0.49237618  0.11149200  0.04158729    -0.24100
C192        C  0.30110884  0.02340486  0.12735084    -0.28700
C193        C  0.29104459  0.05174695  0.15992218     0.06900
C194        C  0.32731069  0.10293432  0.16765594    -0.27400
H195        H  0.33110853  0.97853498  0.06419475     0.11600
H196        H  0.41429524  0.01689461  0.02692672     0.12700
H197        H  0.40405393  0.19756639  0.18045768     0.11800
H198        H  0.48770880  0.23439372  0.14550101     0.11100
H199        H  0.54619043  0.22420779  0.10036617     0.16400
H200        H  0.50083747  0.08842704  0.01895903     0.12300
H201        H  0.27336202  0.98381570  0.12136185     0.15200
H202        H  0.32008209  0.12492788  0.19293073     0.15000
C203        C  0.39610470  0.01370474  0.35982240    -0.17900
C204        C  0.44506966  0.04017527  0.37712833    -0.20100
C205        C  0.46114443  0.08376040  0.40465599     0.20600
C206        C  0.42735144  0.10018421  0.41575972    -0.03000
C207        C  0.37818366  0.07427565  0.39718452    -0.06100
C208        C  0.36278906  0.03106172  0.36886674     0.20900
C209        C  0.34527106  0.09279816  0.40524860     0.19000
C210        C  0.36123489  0.13578337  0.43368741    -0.17500
C211        C  0.40973181  0.16081377  0.45290364    -0.19800
C212        C  0.44334686  0.14372704  0.44348559     0.20500
C213        C  0.49285628  0.16991327  0.46065106    -0.32800
C214        C  0.52799725  0.15406461  0.45033357     0.01200
C215        C  0.51094807  0.11163122  0.41994863    -0.24100
C216        C  0.31538223  0.00746027  0.34791872    -0.28700
C217        C  0.28363092  0.02751120  0.35310756     0.06900
C218        C  0.29810472  0.06939307  0.38291524    -0.27400
H219        H  0.38480134  0.98055760  0.33813554     0.11600
H220        H  0.47055193  0.02676440  0.36862126     0.12700
H221        H  0.33650516  0.15051108  0.44048489     0.11800
H222        H  0.42129447  0.19416061  0.47436160     0.11100
H223        H  0.50455251  0.20355306  0.48149805     0.16400
H224        H  0.53577785  0.09992159  0.40594984     0.12300
H225        H  0.30464380  0.97534380  0.32492057     0.15200
H226        H  0.27379366  0.08509226  0.38700735     0.15000
C227        C  0.43468659  0.67646514  0.04908709    -0.17900
C228        C  0.48260879  0.69833879  0.06945653    -0.20100
C229        C  0.49475591  0.66984700  0.09957840     0.20600
C230        C  0.45855074  0.61852584  0.10823844    -0.03000
C231        C  0.41001853  0.59693647  0.08845266    -0.06100
C232        C  0.39776473  0.62591451  0.05897236     0.20900
C233        C  0.37314570  0.54701293  0.10005863     0.19000
C234        C  0.38527937  0.51796432  0.12934507    -0.17500
C235        C  0.43350907  0.53870601  0.14784881    -0.19800
C236        C  0.47006775  0.58920766  0.13825333     0.20500
C237        C  0.51700104  0.61143678  0.16012403    -0.32800
C238        C  0.55226538  0.66321610  0.15400062     0.01200
C239        C  0.54146281  0.69206918  0.12276303    -0.24100
C240        C  0.34874433  0.60407557  0.04045780    -0.28700
C241        C  0.31058970  0.55312855  0.05102075     0.06900
C242        C  0.32418994  0.52679294  0.08342633    -0.27400
H243        H  0.42620831  0.69940830  0.02628604     0.11600
H244        H  0.50993328  0.73775550  0.06216074     0.12700
H245        H  0.35728552  0.47918662  0.13824234     0.11800
H246        H  0.44175739  0.51569446  0.17079330     0.11100
H247        H  0.52486020  0.58898429  0.18422058     0.16400
H248        H  0.56849463  0.73209351  0.11791015     0.12300
H249        H  0.33981949  0.62701984  0.01818080     0.15200
H250        H  0.29718965  0.49050356  0.09792009     0.15000
C251        C  0.43654945  0.69321584  0.34857419    -0.17900
C252        C  0.38814545  0.66673094  0.36735741    -0.20100
C253        C  0.37455998  0.62633023  0.39857040     0.20600
C254        C  0.41004804  0.61279141  0.41142058    -0.03000
C255        C  0.45880374  0.63894684  0.39178419    -0.06100
C256        C  0.47188758  0.67919728  0.36012010     0.20900
C257        C  0.49372107  0.62361721  0.40239139     0.19000
C258        C  0.47991320  0.58325985  0.43376337    -0.17500
C259        C  0.43161631  0.55766924  0.45356302    -0.19800
C260        C  0.39621125  0.57181578  0.44214617     0.20500
C261        C  0.34708912  0.54526037  0.46042758    -0.32800
C262        C  0.31065584  0.55910027  0.44936339     0.01200
C263        C  0.32556818  0.59880584  0.41601018    -0.24100
C264        C  0.51921228  0.70322851  0.33874753    -0.28700
C265        C  0.55326507  0.68654438  0.34711752     0.06900
C266        C  0.54083978  0.64746931  0.37983119    -0.27400
H267        H  0.44597700  0.72391259  0.32417408     0.11600
H268        H  0.36119480  0.67769578  0.35723056     0.12700
H269        H  0.50620518  0.57098103  0.44244478     0.11800
H270        H  0.42174515  0.52637609  0.47734135     0.11100
H271        H  0.33671789  0.51297821  0.48293749     0.16400
H272        H  0.29947986  0.60839659  0.40119117     0.12300
H273        H  0.52830674  0.73300684  0.31332426     0.15200
H274        H  0.56691498  0.63432349  0.38627834     0.15000
C275        C  0.60124353  0.02338702  0.15202965    -0.17900
C276        C  0.57951258  0.04978941  0.13329044    -0.20100
C277        C  0.60637843  0.08966618  0.10145312     0.20600
C278        C  0.65537947  0.10295208  0.08815853    -0.03000
C279        C  0.67791737  0.07706454  0.10796195    -0.06100
C280        C  0.65056258  0.03710160  0.13997981     0.20900
C281        C  0.72822669  0.09225503  0.09701869     0.19000
C282        C  0.75491074  0.13225341  0.06520298    -0.17500
C283        C  0.73217859  0.15739982  0.04506239    -0.19800
C284        C  0.68252776  0.14335455  0.05672103     0.20500
C285        C  0.65987021  0.16943737  0.03801273    -0.32800
C286        C  0.60957375  0.15581055  0.04956730     0.01200
C287        C  0.58496766  0.11689181  0.08378670    -0.24100
C288        C  0.67359571  0.01295496  0.16108827    -0.28700
C289        C  0.72435981  0.02934872  0.15225061     0.06900
C290        C  0.75133353  0.06844799  0.11948295    -0.27400
H291        H  0.57985281  0.99296909  0.17675366     0.11600
H292        H  0.54162445  0.03904742  0.14380865     0.12700
H293        H  0.79354769  0.14446125  0.05627590     0.11800
H294        H  0.75367409  0.18828790  0.02080505     0.11100
H295        H  0.68176203  0.20124269  0.01485708     0.16400
H296        H  0.54949607  0.10776715  0.09914410     0.12300
H297        H  0.65268999  0.98325847  0.18662074     0.15200
H298        H  0.79061876  0.08147803  0.11273931     0.15000
C299        C  0.64447456  0.01924636  0.43044703    -0.17900
C300        C  0.61792790  0.04046347  0.45071397    -0.20100
C301        C  0.63021708  0.09019266  0.43952898     0.20600
C302        C  0.67048976  0.11905053  0.40864887    -0.03000
C303        C  0.69771238  0.09803570  0.38865680    -0.06100
C304        C  0.68407309  0.04753071  0.39892029     0.20900
C305        C  0.73730877  0.12699446  0.35694958     0.19000
C306        C  0.74982960  0.17668628  0.34595152    -0.17500
C307        C  0.72221843  0.19695077  0.36496887    -0.19800
C308        C  0.68221631  0.16815304  0.39592411     0.20500
C309        C  0.65329671  0.18773483  0.41319696    -0.32800
C310        C  0.61455074  0.16165338  0.44715010     0.01200
C311        C  0.60267648  0.11132428  0.45829769    -0.24100
C312        C  0.70890231  0.02573194  0.37596985    -0.28700
C313        C  0.74727109  0.05408324  0.34316785     0.06900
C314        C  0.76221849  0.10510604  0.33503875    -0.27400
H315        H  0.63353913  0.98044676  0.43890860     0.11600
H316        H  0.58728322  0.01769048  0.47461759     0.12700
H317        H  0.78011849  0.19941046  0.32169702     0.11800
H318        H  0.73194435  0.23511240  0.35516208     0.11100
H319        H  0.66136281  0.22323820  0.39790486     0.16400
H320        H  0.57137709  0.08834580  0.48143701     0.12300
H321        H  0.69710264  0.98627076  0.38226139     0.15200
H322        H  0.79146338  0.12708634  0.30959229     0.15000
C323        C  0.64320332  0.41438415  0.06384897    -0.17900
C324        C  0.61702515  0.36547280  0.04459682    -0.20100
C325        C  0.63061781  0.32937398  0.05588930     0.20600
C326        C  0.67178696  0.34320058  0.08569909    -0.03000
C327        C  0.69857245  0.39258933  0.10471734    -0.06100
C328        C  0.68365663  0.42813691  0.09446688     0.20900
C329        C  0.73900124  0.40564916  0.13553012     0.19000
C330        C  0.75259532  0.36968606  0.14681022    -0.17500
C331        C  0.72544910  0.32063763  0.12871061    -0.19800
C332        C  0.68483015  0.30704687  0.09840131     0.20500
C333        C  0.65656520  0.25739159  0.08178103    -0.32800
C334        C  0.61682946  0.24252830  0.04901871     0.01200
C335        C  0.60336237  0.27959382  0.03835158    -0.24100
C336        C  0.70800734  0.47579022  0.11671466    -0.28700
C337        C  0.74725758  0.48814939  0.14863968     0.06900
C338        C  0.76360339  0.45354777  0.15646765    -0.27400
H339        H  0.63128094  0.44117529  0.05539188     0.11600
H340        H  0.58564213  0.35563464  0.02143530     0.12700
H341        H  0.78344254  0.37911171  0.17055445     0.11800
H342        H  0.73606809  0.29319169  0.13867084     0.13100
H343        H  0.66554721  0.23072667  0.09680013     0.16400
H344        H  0.57116584  0.26944116  0.01641752     0.12300
H345        H  0.69510769  0.50229541  0.11072180     0.15200
H346        H  0.79349522  0.46259200  0.18132041     0.15000
C347        C  0.72756124  0.36704250  0.45126377    -0.17900
C348        C  0.74919406  0.41538155  0.43095336    -0.20100
C349        C  0.72293493  0.42590318  0.39699685     0.20600
C350        C  0.67397415  0.38759552  0.38423304    -0.03000
C351        C  0.65218921  0.33899069  0.40491553    -0.06100
C352        C  0.67920043  0.32846188  0.43815667     0.20900
C353        C  0.60426544  0.30039047  0.39074387     0.19000
C354        C  0.57812628  0.31042572  0.35628151    -0.17500
C355        C  0.59936753  0.35856498  0.33611452    -0.19800
C356        C  0.64733583  0.39728649  0.34968596     0.20500
C357        C  0.66983979  0.44484499  0.32790099    -0.32800
C358        C  0.71928011  0.48260086  0.33904763     0.01200
C359        C  0.74536440  0.47326214  0.37425982    -0.24100
C360        C  0.65767688  0.27949113  0.45742209    -0.28700
C361        C  0.60751891  0.24066046  0.44681856     0.06900
C362        C  0.58321315  0.25199686  0.41046941    -0.27400
H363        H  0.74877159  0.35975953  0.47709035     0.11600
H364        H  0.78677997  0.44431017  0.44128545     0.12700
H365        H  0.54118641  0.28098033  0.34487043     0.11800
H366        H  0.57858225  0.36528648  0.30939602     0.11100
H367        H  0.64969589  0.45152811  0.30045741     0.16400
H368        H  0.78363931  0.50213196  0.38276782     0.12300
H369        H  0.68018985  0.27136744  0.48080230     0.15200
H370        H  0.54841682  0.22320095  0.39509256     0.15000
In371      In  0.79163790  0.60214322  0.74634089     1.36900
C372        C  0.89117227  0.66145274  0.74711200     0.77500
O373        O  0.80238113  0.54522965  0.70724782    -0.60900
O374        O  0.74599056  0.55952723  0.68294204    -0.51800
C375        C  0.74499987  0.52861018  0.80952874     0.70200
O376        O  0.79187895  0.55903356  0.81038216    -0.46700
C377        C  0.75434438  0.66357016  0.74891960     0.74900
O378        O  0.86559681  0.64379842  0.78397153    -0.58600
O379        O  0.76707186  0.65163076  0.71133311    -0.48700
O380        O  0.86572991  0.65117069  0.71006763    -0.55000
C381        C  0.76649628  0.53304588  0.67932530     0.85100
O382        O  0.72206703  0.53858692  0.77883556    -0.56900
O383        O  0.76363817  0.64682319  0.78545987    -0.60200
In384      In  0.79448960  0.98537476  0.74809276     1.36900
C385        C  0.89336367  0.02472316  0.74914148     0.77500
O386        O  0.80185451  0.05411397  0.78323022    -0.60900
O387        O  0.74951128  0.98216427  0.81162561    -0.51800
C388        C  0.74989411  0.01013740  0.68238849     0.70200
O389        O  0.79706064  0.03016626  0.68421191    -0.46700
C390        C  0.75610376  0.88572930  0.74933926     0.74900
O391        O  0.86854899  0.01343302  0.71168695    -0.58600
O392        O  0.76722144  0.91185333  0.78614834    -0.48700
O393        O  0.86746042  0.01381951  0.78600738    -0.55000
C394        C  0.76747141  0.02952071  0.81276703     0.85100
O395        O  0.72610402  0.97472122  0.71140021    -0.56900
O396        O  0.76706962  0.91078748  0.71179570    -0.60200
In397      In  0.66762603  0.73050945  0.75059260     1.36900
C398        C  0.72875672  0.83028848  0.75012294     0.77500
O399        O  0.61004903  0.74106308  0.78782458    -0.60900
O400        O  0.62449412  0.68496804  0.81413174    -0.51800
C401        C  0.59676589  0.68749438  0.68500642     0.70200
O402        O  0.62596461  0.73486134  0.68747741    -0.46700
C403        C  0.72713046  0.69118751  0.74974309     0.74900
O404        O  0.71563667  0.80419522  0.71323761    -0.58600
O405        O  0.71265063  0.70158982  0.78716151    -0.48700
O406        O  0.71337235  0.80511086  0.78753814    -0.55000
C407        C  0.59792376  0.70542230  0.81656413     0.85100
O408        O  0.60648911  0.66244551  0.71378230    -0.56900
O409        O  0.71336267  0.70322115  0.71290711    -0.60200
C410        C  0.58390166  0.18561224  0.96912275    -0.02600
C411        C  0.58523809  0.18656792  0.52894159    -0.02600
In412      In  0.04569941  0.72931117  0.74567800     1.36900
C413        C  0.94627447  0.68882115  0.74703194     0.77500
O414        O  0.04235222  0.66194579  0.77951316    -0.60900
O415        O  0.09271053  0.73409971  0.80840699    -0.51800
C416        C  0.08917864  0.70573303  0.67757927     0.70200
O417        O  0.04202263  0.68334790  0.68216840    -0.46700
C418        C  0.08393733  0.82884380  0.74923292     0.74900
O419        O  0.97191903  0.70511812  0.71007402    -0.58600
O420        O  0.07182165  0.80164960  0.78547502    -0.48700
O421        O  0.97157413  0.69527102  0.78357511    -0.55000
C422        C  0.07661969  0.68706638  0.80885379     0.85100
O423        O  0.11310635  0.74263899  0.70499759    -0.56900
O424        O  0.07373042  0.80485077  0.71113956    -0.60200
In425      In  0.17243645  0.98418110  0.75375980     1.36900
C426        C  0.11148402  0.88429264  0.75117884     0.77500
O427        O  0.22788929  0.97287988  0.79357287    -0.60900
O428        O  0.21398462  0.03012306  0.81767499    -0.51800
C429        C  0.24570613  0.02740679  0.69005778     0.70200
O430        O  0.21564755  0.98011525  0.69147803    -0.46700
C431        C  0.11306676  0.02375213  0.75213849     0.74900
O432        O  0.12494387  0.91140750  0.71485867    -0.58600
O433        O  0.12346071  0.00902922  0.78936870    -0.48700
O434        O  0.12660410  0.90846300  0.78908011    -0.55000
C435        C  0.23978629  0.00897183  0.82169005     0.85100
O436        O  0.23577369  0.05229597  0.71888988    -0.56900
O437        O  0.13071723  0.01575698  0.71548789    -0.60200
In438      In  0.04742180  0.11207525  0.75219943     1.36900
C439        C  0.94829276  0.05185879  0.74987670     0.77500
O440        O  0.04112615  0.17492863  0.71968336    -0.60900
O441        O  0.09127394  0.15557238  0.68810874    -0.51800
C442        C  0.09144305  0.18149168  0.81909088     0.70200
O443        O  0.04430479  0.15332591  0.81658831    -0.46700
C444        C  0.08592208  0.05151365  0.75185269     0.74900
O445        O  0.97290537  0.06387962  0.78745097    -0.58600
O446        O  0.07707246  0.06784147  0.71477576    -0.48700
O447        O  0.97453578  0.06790186  0.71322431    -0.55000
C448        C  0.07427980  0.18535568  0.68892372     0.85100
O449        O  0.11548959  0.17089967  0.78999535    -0.56900
O450        O  0.07260483  0.06381591  0.78890848    -0.60200
C451        C  0.25535171  0.52806163  0.97000582    -0.02600
C452        C  0.25541258  0.52865191  0.52981523    -0.02600
C453        C  0.18876178  0.29818190  0.56463664    -0.17900
C454        C  0.21557275  0.34665079  0.54449337    -0.20100
C455        C  0.20671231  0.38532114  0.55891332     0.20600
C456        C  0.16963560  0.37461252  0.59295933    -0.03000
C457        C  0.14288039  0.32595365  0.61361555    -0.06100
C458        C  0.15292426  0.28767222  0.59982918     0.20900
C459        C  0.10735833  0.31623264  0.64923611     0.19000
C460        C  0.09843751  0.35478274  0.66354570    -0.17500
C461        C  0.12508763  0.40288949  0.64322878    -0.19800
C462        C  0.16083040  0.41312056  0.60803255     0.20500
C463        C  0.18830454  0.46164686  0.58851924    -0.32800
C464        C  0.22390247  0.47338928  0.55181879     0.01200
C465        C  0.23467532  0.43457409  0.54021547    -0.24100
C466        C  0.12846113  0.24041382  0.62283378    -0.28700
C467        C  0.09410333  0.23119239  0.65928843     0.06900
C468        C  0.08281443  0.26883298  0.67131979    -0.27400
H469        H  0.19679662  0.26922435  0.55335789     0.11600
H470        H  0.24350304  0.35399428  0.51785205     0.12700
H471        H  0.07143224  0.34797486  0.69098815     0.11800
H472        H  0.11790860  0.43222357  0.65525432     0.11100
H473        H  0.18245842  0.49023504  0.60435255     0.16400
H474        H  0.26518804  0.44284717  0.51643052     0.12300
H475        H  0.13743086  0.21156228  0.61354364     0.15200
H476        H  0.05673951  0.26220639  0.69964811     0.15000
C477        C  0.24087177  0.34550608  0.85288028    -0.17900
C478        C  0.26234210  0.39466434  0.87056557    -0.20100
C479        C  0.23463920  0.40797233  0.90029604     0.20600
C480        C  0.18519943  0.37142555  0.91288880    -0.03000
C481        C  0.16292629  0.32195029  0.89405224    -0.06100
C482        C  0.19097380  0.30918984  0.86377196     0.20900
C483        C  0.11214368  0.28602711  0.90389695     0.19000
C484        C  0.08485207  0.29944836  0.93414819    -0.17500
C485        C  0.10732715  0.34838401  0.95339925    -0.19800
C486        C  0.15732875  0.38493643  0.94238134     0.20500
C487        C  0.17976518  0.43477429  0.95999476    -0.32800
C488        C  0.23064350  0.47217487  0.94949641     0.01200
C489        C  0.25570373  0.45769207  0.91656394    -0.24100
C490        C  0.16801051  0.26128660  0.84282332    -0.28700
C491        C  0.11670496  0.22635769  0.85001952     0.06900
C492        C  0.08915499  0.23836176  0.88158166    -0.27400
H493        H  0.26285745  0.33630550  0.82962300     0.11600
H494        H  0.30065716  0.42240427  0.86080092     0.12700
H495        H  0.04588672  0.27236112  0.94234011     0.11800
H496        H  0.08532416  0.35788795  0.97631825     0.11100
H497        H  0.15754203  0.44462067  0.98205929     0.16400
H498        H  0.29140204  0.48466607  0.90132743     0.12300
H499        H  0.18943301  0.25251097  0.81838506     0.15200
H500        H  0.04948848  0.21161385  0.88717610     0.15000
C501        C  0.26228683  0.67141025  0.62594891    -0.17900
C502        C  0.24017845  0.69809176  0.64334090    -0.20100
C503        C  0.18999408  0.68215223  0.63282572     0.20600
C504        C  0.16224453  0.63991713  0.60331080    -0.03000
C505        C  0.18506048  0.61363112  0.58492032    -0.06100
C506        C  0.23486241  0.62892434  0.59703786     0.20900
C507        C  0.15738654  0.57079814  0.55629793     0.19000
C508        C  0.10712268  0.55495309  0.54564949    -0.17500
C509        C  0.08416668  0.58055071  0.56438905    -0.19800
C510        C  0.11121551  0.62271440  0.59379442     0.20500
C511        C  0.08770997  0.64648344  0.61568582    -0.32800
C512        C  0.11493349  0.68739725  0.64656553     0.01200
C513        C  0.16646518  0.70614749  0.65339530    -0.24100
C514        C  0.25647320  0.60110028  0.58117556    -0.28700
C515        C  0.23115718  0.55972352  0.54958236     0.06900
C516        C  0.18020046  0.54422457  0.53924103    -0.27400
H517        H  0.30082629  0.68384851  0.63538411     0.11600
H518        H  0.26193356  0.73038649  0.66604817     0.12700
H519        H  0.08529517  0.52223510  0.52342600     0.11800
H520        H  0.04501923  0.56685075  0.55650452     0.11100
H521        H  0.04788972  0.63174789  0.61040717     0.16400
H522        H  0.18762729  0.73739094  0.67737839     0.12300
H523        H  0.29264414  0.61186162  0.59569092     0.15200
H524        H  0.15809313  0.51097948  0.51787678     0.15000
C525        C  0.09784717  0.54170347  0.83897347    -0.17900
C526        C  0.12381450  0.52054539  0.85958015    -0.20100
C527        C  0.16125370  0.54791933  0.89302096     0.20600
C528        C  0.17258738  0.59687765  0.90602581    -0.03000
C529        C  0.14678567  0.61869919  0.88468944    -0.06100
C530        C  0.10930684  0.59081108  0.85103922     0.20900
C531        C  0.15943269  0.66874309  0.89591835     0.19000
C532        C  0.19720552  0.69600421  0.92923776    -0.17500
C533        C  0.22272628  0.67418015  0.95044006    -0.19800
C534        C  0.21098665  0.62470611  0.93871956     0.20500
C535        C  0.23735597  0.60286589  0.95857128    -0.32800
C536        C  0.22494065  0.55218261  0.94796012     0.01200
C537        C  0.18798364  0.52699536  0.91257935    -0.24100
C538        C  0.08495243  0.61291364  0.82874336    -0.28700
C539        C  0.09817925  0.66317498  0.83841308     0.06900
C540        C  0.13512132  0.69088383  0.87251389    -0.27400
H541        H  0.06932978  0.51993510  0.81303058     0.11600
H542        H  0.11467264  0.48270829  0.84921711     0.12700
H543        H  0.20744463  0.73442646  0.93848285     0.11800
H544        H  0.25194073  0.69617091  0.97574832     0.11100
H545        H  0.26835656  0.62570327  0.98190450     0.16400
H546        H  0.18030920  0.49146874  0.89758313     0.12300
H547        H  0.05702226  0.59148077  0.80220106     0.15200
H548        H  0.14577354  0.72984293  0.87990738     0.15000
C549        C  0.35895052  0.01757267  0.57219636    -0.17900
C550        C  0.40654184  0.03944206  0.55102250    -0.20100
C551        C  0.44391573  0.08961871  0.56138914     0.20600
C552        C  0.43270561  0.11814881  0.59257417    -0.03000
C553        C  0.38463653  0.09642856  0.61353593    -0.06100
C554        C  0.34773577  0.04560584  0.60388091     0.20900
C555        C  0.37415111  0.12515030  0.64538157     0.19000
C556        C  0.41145649  0.17507657  0.65597277    -0.17500
C557        C  0.45921616  0.19600586  0.63608892    -0.19800
C558        C  0.47014125  0.16771272  0.60453112     0.20500
C559        C  0.51839915  0.18832182  0.58576388    -0.32800
C560        C  0.53060708  0.16251854  0.55140372     0.01200
C561        C  0.49237526  0.11149182  0.54158772    -0.24100
C562        C  0.30110695  0.02340441  0.62735033    -0.28700
C563        C  0.29104247  0.05174670  0.65992122     0.06900
C564        C  0.32730799  0.10293466  0.66765352    -0.27400
H565        H  0.33110726  0.97853467  0.56419455     0.11600
H566        H  0.41429470  0.01689329  0.52692706     0.12700
H567        H  0.40404985  0.19756809  0.68045247     0.11800
H568        H  0.48770484  0.23439501  0.64549714     0.11100
H569        H  0.54618810  0.22420854  0.60036487     0.16400
H570        H  0.50083683  0.08842677  0.51896021     0.12300
H571        H  0.27336061  0.98381461  0.62136228     0.15200
H572        H  0.32007871  0.12492872  0.69292688     0.15000
C573        C  0.39610627  0.01370717  0.85981949    -0.17900
C574        C  0.44507125  0.04017786  0.87712529    -0.20100
C575        C  0.46114542  0.08376188  0.90465459     0.20600
C576        C  0.42735191  0.10018436  0.91575992    -0.03000
C577        C  0.37818385  0.07427537  0.89718519    -0.06100
C578        C  0.36278983  0.03106250  0.86886573     0.20900
C579        C  0.34527045  0.09279657  0.90525127     0.19000
C580        C  0.36123377  0.13578074  0.93369148    -0.17500
C581        C  0.40973112  0.16081168  0.95290687    -0.19800
C582        C  0.44334717  0.14372667  0.94348676     0.20500
C583        C  0.49285696  0.16991336  0.96065142    -0.32800
C584        C  0.52799807  0.15406523  0.95033332     0.01200
C585        C  0.51094912  0.11163263  0.91994725    -0.24100
C586        C  0.31538288  0.00746090  0.84791827    -0.28700
C587        C  0.28363075  0.02751058  0.85310913     0.06900
C588        C  0.29810382  0.06939127  0.88291844    -0.27400
H589        H  0.38480344  0.98056072  0.83813151     0.11600
H590        H  0.47055376  0.02676816  0.86861687     0.12700
H591        H  0.33650331  0.15050737  0.94049042     0.11800
H592        H  0.42129371  0.19415804  0.97436548     0.11100
H593        H  0.50455354  0.20355365  0.98149896     0.16400
H594        H  0.53577911  0.09992393  0.90594756     0.12300
H595        H  0.30464496  0.97534525  0.82491854     0.15200
H596        H  0.27379173  0.08508912  0.88701239     0.15000
C597        C  0.43468600  0.67646415  0.54908858    -0.17900
C598        C  0.48260812  0.69833789  0.56945842    -0.20100
C599        C  0.49475496  0.66984607  0.59958053     0.20600
C600        C  0.45854987  0.61852502  0.60824041    -0.03000
C601        C  0.41001772  0.59693562  0.58845440    -0.06100
C602        C  0.39776409  0.62591370  0.55897379     0.20900
C603        C  0.37314497  0.54701196  0.60005989     0.19000
C604        C  0.38527834  0.51796343  0.62934665    -0.17500
C605        C  0.43350787  0.53870518  0.64785069    -0.19800
C606        C  0.47006662  0.58920693  0.63825553     0.20500
C607        C  0.51699973  0.61143615  0.66012662    -0.32800
C608        C  0.55226410  0.66321549  0.65400322     0.01200
C609        C  0.54146168  0.69206841  0.62276536    -0.24100
C610        C  0.34874398  0.60407511  0.54045888    -0.28700
C611        C  0.31058931  0.55312825  0.55102185     0.06900
C612        C  0.32418937  0.52679243  0.58342753    -0.27400
H613        H  0.42620772  0.69940751  0.52628787     0.11600
H614        H  0.50993261  0.73775403  0.56216242     0.12700
H615        H  0.35728454  0.47918549  0.63824339     0.11800
H616        H  0.44175584  0.51569349  0.67079531     0.11100
H617        H  0.52485862  0.58898378  0.68422347     0.16400
H618        H  0.56849312  0.73209274  0.61791260     0.12300
H619        H  0.33981917  0.62701980  0.51818195     0.15200
H620        H  0.29718911  0.49050233  0.59792049     0.15000
C621        C  0.43654955  0.69321660  0.84857495    -0.17900
C622        C  0.38814524  0.66673107  0.86735739    -0.20100
C623        C  0.37455976  0.62633013  0.89856995     0.20600
C624        C  0.41004792  0.61279156  0.91142056    -0.03000
C625        C  0.45880371  0.63894747  0.89178496    -0.06100
C626        C  0.47188773  0.67919816  0.86012131     0.20900
C627        C  0.49372117  0.62361824  0.90239248     0.19000
C628        C  0.47991353  0.58326077  0.93376393    -0.17500
C629        C  0.43161645  0.55766954  0.95356292    -0.19800
C630        C  0.39621125  0.57181592  0.94214583     0.20500
C631        C  0.34708894  0.54526005  0.96042669    -0.32800
C632        C  0.31065560  0.55909973  0.94936223     0.01200
C633        C  0.32556788  0.59880526  0.91600911    -0.24100
C634        C  0.51921281  0.70323010  0.83874922    -0.28700
C635        C  0.55326551  0.68654611  0.84711945     0.06900
C636        C  0.54084010  0.64747085  0.87983276    -0.27400
H637        H  0.44597729  0.72391341  0.82417501     0.11600
H638        H  0.36119411  0.67769557  0.85723029     0.12700
H639        H  0.50620593  0.57098216  0.94244551     0.11800
H640        H  0.42174538  0.52637668  0.97734102     0.11100
H641        H  0.33671764  0.51297797  0.98293650     0.16400
H642        H  0.29947953  0.60839570  0.90118988     0.12300
H643        H  0.52830698  0.73300755  0.81332584     0.15200
H644        H  0.56691535  0.63432601  0.88628035     0.15000
C645        C  0.60124522  0.02338876  0.65203067    -0.17900
C646        C  0.57951389  0.04979102  0.63329165    -0.20100
C647        C  0.60637913  0.08966764  0.60145413     0.20600
C648        C  0.65538030  0.10295405  0.58815968    -0.03000
C649        C  0.67791867  0.07706674  0.60796303    -0.06100
C650        C  0.65056434  0.03710379  0.63998084     0.20900
C651        C  0.72822796  0.09225743  0.59701986     0.19000
C652        C  0.75491182  0.13225609  0.56520441    -0.17500
C653        C  0.73217920  0.15740216  0.54506385    -0.19800
C654        C  0.68252826  0.14335655  0.55672225     0.20500
C655        C  0.65987018  0.16943864  0.53801352    -0.32800
C656        C  0.60957348  0.15581119  0.54956786     0.01200
C657        C  0.58496760  0.11689247  0.58378731    -0.24100
C658        C  0.67359737  0.01295667  0.66108869    -0.28700
C659        C  0.72436137  0.02935041  0.65225092     0.06900
C660        C  0.75133509  0.06845038  0.61948385    -0.27400
H661        H  0.57985523  0.99297137  0.67675481     0.11600
H662        H  0.54162578  0.03904865  0.64380999     0.12700
H663        H  0.79354864  0.14446427  0.55627732     0.11800
H664        H  0.75367437  0.18828999  0.52080643     0.11100
H665        H  0.68176209  0.20124434  0.51485792     0.16400
H666        H  0.54949555  0.10776707  0.59914410     0.12300
H667        H  0.65269162  0.98325985  0.68662096     0.15200
H668        H  0.79062012  0.08148035  0.61273994     0.15000
C669        C  0.64447456  0.01924612  0.93044626    -0.17900
C670        C  0.61792763  0.04046307  0.95071308    -0.20100
C671        C  0.63021684  0.09019228  0.93952836     0.20600
C672        C  0.67048999  0.11905035  0.90864841    -0.03000
C673        C  0.69771266  0.09803557  0.88865645    -0.06100
C674        C  0.68407339  0.04753070  0.89891990     0.20900
C675        C  0.73730917  0.12699432  0.85694936     0.19000
C676        C  0.74983043  0.17668629  0.84595148    -0.17500
C677        C  0.72221953  0.19695097  0.86496884    -0.19800
C678        C  0.68221722  0.16815317  0.89592403     0.20500
C679        C  0.65329785  0.18773510  0.91319702    -0.32800
C680        C  0.61455110  0.16165328  0.94714958     0.01200
C681        C  0.60267621  0.11132393  0.95829683    -0.24100
C682        C  0.70890244  0.02573176  0.87596947    -0.28700
C683        C  0.74727137  0.05408308  0.84316771     0.06900
C684        C  0.76221888  0.10510586  0.83503864    -0.27400
H685        H  0.63353950  0.98044658  0.93890779     0.11600
H686        H  0.58728284  0.01769012  0.97461692     0.12700
H687        H  0.78011986  0.19941068  0.82169723     0.11800
H688        H  0.73194581  0.23511291  0.85516223     0.11100
H689        H  0.66136516  0.22323921  0.89790597     0.16400
H690        H  0.57137595  0.08834503  0.98143593     0.12300
H691        H  0.69710329  0.98627122  0.88226146     0.15200
H692        H  0.79146349  0.12708596  0.80959234     0.15000
C693        C  0.64320403  0.41438542  0.56384737    -0.17900
C694        C  0.61702572  0.36547387  0.54459551    -0.20100
C695        C  0.63061768  0.32937467  0.55588892     0.20600
C696        C  0.67178619  0.34320103  0.58569924    -0.03000
C697        C  0.69857173  0.39258990  0.60471736    -0.06100
C698        C  0.68365654  0.42813785  0.59446612     0.20900
C699        C  0.73899981  0.40564948  0.63553079     0.19000
C700        C  0.75259302  0.36968600  0.64681204    -0.17500
C701        C  0.72544672  0.32063754  0.62871245    -0.19800
C702        C  0.68482845  0.30704688  0.59840251     0.20500
C703        C  0.65656356  0.25739164  0.58178216    -0.32800
C704        C  0.61682860  0.24252853  0.54901916     0.01200
C705        C  0.60336195  0.27959434  0.53835141    -0.24100
C706        C  0.70800747  0.47579138  0.61671360    -0.28700
C707        C  0.74725696  0.48815019  0.64863939     0.06900
C708        C  0.76360211  0.45354816  0.65646817    -0.27400
H709        H  0.63128212  0.44117693  0.55538980     0.11600
H710        H  0.58564294  0.35563567  0.52143368     0.12700
H711        H  0.78343935  0.37911122  0.67055673     0.11800
H712        H  0.73606549  0.29319154  0.63867312     0.13100
H713        H  0.66554453  0.23072616  0.59680232     0.16400
H714        H  0.57116628  0.26944207  0.51641696     0.12300
H715        H  0.69510823  0.50229684  0.61072025     0.15200
H716        H  0.79349301  0.46259181  0.68132173     0.15000
C717        C  0.72755975  0.36704409  0.95126570    -0.17900
C718        C  0.74919199  0.41538347  0.93095588    -0.20100
C719        C  0.72293338  0.42590426  0.89699839     0.20600
C720        C  0.67397364  0.38759571  0.88423314    -0.03000
C721        C  0.65218915  0.33899083  0.90491531    -0.06100
C722        C  0.67919987  0.32846271  0.93815732     0.20900
C723        C  0.60426621  0.30039002  0.89074262     0.19000
C724        C  0.57812743  0.31042423  0.85627906    -0.17500
C725        C  0.59936852  0.35856346  0.83611204    -0.19800
C726        C  0.64733588  0.39728583  0.84968502     0.20500
C727        C  0.66983964  0.44484441  0.82790019    -0.32800
C728        C  0.71927915  0.48260111  0.83904821     0.01200
C729        C  0.74536267  0.47326325  0.87426158    -0.24100
C730        C  0.65767722  0.27949167  0.95742216    -0.28700
C731        C  0.60751956  0.24066074  0.94681822     0.06900
C732        C  0.58321405  0.25199658  0.91046843    -0.27400
H733        H  0.74876935  0.35976190  0.97709286     0.11600
H734        H  0.78677696  0.44431243  0.94128913     0.12700
H735        H  0.54118834  0.28097801  0.84486685     0.11800
H736        H  0.57858367  0.36528453  0.80939259     0.11100
H737        H  0.64969671  0.45152681  0.80045573     0.16400
H738        H  0.78363687  0.50213382  0.88277071     0.12300
H739        H  0.68019024  0.27136813  0.98080197     0.15200
H740        H  0.54841801  0.22320079  0.89509185     0.15000
loop_ 
_geom_bond_atom_site_label_1 
_geom_bond_atom_site_label_2 
_geom_bond_distance 
_geom_bond_site_symmetry_2 
_ccdc_geom_bond_type 
In1           O3   2.230       .  S
In1           O4   2.260       .  S
In1          O12   2.236       .  S
In1           O6   2.259       .  S
In1           O8   2.246       .  S
In1           O9   2.246       .  S
In1          O10   2.249       .  S
In1          O13   2.250       .  S
C2            O8   1.260       .  A
C2           O10   1.261       .  A
C2           C43   1.465       .  S
O3           C11   1.260       .  A
O4           C11   1.261       .  A
C5           O12   1.260       .  A
C5            O6   1.262       .  A
C5          C358   1.478       .  S
C7            O9   1.259       .  A
C7           O13   1.260       .  A
C7           C33   1.464       .  S
C11         C337   1.476       .  S
In14         O16   2.235   1_565  S
In14         O17   2.255       .  S
In14         O25   2.231       .  S
In14         O19   2.260   1_565  S
In14         O21   2.245   1_565  S
In14         O22   2.241       .  S
In14         O23   2.241   1_565  S
In14         O26   2.244       .  S
C15          O21   1.259       .  A
C15          O23   1.259       .  A
C15          C69   1.461       .  S
O16          C24   1.261       .  A
O17          C24   1.261   1_565  A
C18          O25   1.261   1_545  A
C18          O19   1.262       .  A
C18         C289   1.478       .  S
C20          O22   1.259       .  A
C20          O26   1.260       .  A
C20          C28   1.460       .  S
C24         C313   1.477       .  S
In27         O29   2.230       .  S
In27         O30   2.262       .  S
In27         O38   2.239       .  S
In27         O32   2.261       .  S
In27         O34   2.239       .  S
In27         O35   2.251       .  S
In27         O36   2.245       .  S
In27         O39   2.246       .  S
C28          O34   1.259       .  A
C28          O36   1.260       .  A
O29          C37   1.260       .  A
O30          C37   1.262       .  A
C31          O38   1.261       .  A
C31          O32   1.260       .  A
C31         C238   1.480       .  S
C33          O35   1.260       .  A
C33          O39   1.259       .  A
C37         C265   1.477       .  S
C40         C214   1.584       .  S
C40         C310   1.591       .  S
C40         C361   1.588       .  S
C40         C411   1.710       .  S
C41         C190   1.591       .  S
C41         C286   1.588       .  S
C41         C334   1.585       .  S
C41         C410   1.710   1_554  S
In42         O44   2.231       .  S
In42         O45   2.267       .  S
In42         O53   2.231       .  S
In42         O47   2.263       .  S
In42         O49   2.251   1_455  S
In42         O50   2.242       .  S
In42         O51   2.250   1_455  S
In42         O54   2.242       .  S
C43          O49   1.259       .  A
C43          O51   1.260       .  A
O44          C52   1.261       .  A
O45          C52   1.261       .  A
C46          O53   1.260       .  A
C46          O47   1.261       .  A
C46         C142   1.478       .  S
C48          O50   1.260       .  A
C48          O54   1.260       .  A
C48          C56   1.461       .  S
C52         C169   1.480       .  S
In55         O57   2.227       .  S
In55         O58   2.265   1_565  S
In55         O66   2.237   1_565  S
In55         O60   2.263       .  S
In55         O62   2.242       .  S
In55         O63   2.250   1_565  S
In55         O64   2.246       .  S
In55         O67   2.250   1_565  S
C56          O62   1.259       .  A
C56          O64   1.260       .  A
O57          C65   1.260   1_565  A
O58          C65   1.262       .  A
C59          O66   1.260       .  A
C59          O60   1.261   1_545  A
C59         C193   1.480       .  S
C61          O63   1.260       .  A
C61          O67   1.260       .  A
C61          C74   1.466       .  S
C65         C217   1.478       .  S
In68         O70   2.232       .  S
In68         O71   2.262       .  S
In68         O79   2.232       .  S
In68         O73   2.260       .  S
In68         O75   2.241   1_455  S
In68         O76   2.251       .  S
In68         O77   2.247   1_455  S
In68         O80   2.249       .  S
C69          O75   1.259       .  A
C69          O77   1.260       .  A
O70          C78   1.260       .  A
O71          C78   1.262       .  A
C72          O79   1.261       .  A
C72          O73   1.261       .  A
C72         C121   1.478       .  S
C74          O76   1.260       .  A
C74          O80   1.260       .  A
C78          C97   1.478       .  S
C81         C118   1.588       .  S
C81         C166   1.591       .  S
C81         C262   1.585       .  S
C81         C452   1.709       .  S
C82          C94   1.589       .  S
C82         C145   1.583       .  S
C82         C241   1.593       .  S
C82         C451   1.709   1_554  S
C83          C84   1.402       .  A
C83          C88   1.405       .  A
C83          H99   1.083       .  S
C84          C85   1.405       .  A
C84         H100   1.084       .  S
C85          C95   1.406       .  A
C85          C86   1.407       .  A
C86          C92   1.404       .  A
C86          C87   1.412       .  A
C87          C89   1.411       .  A
C87          C88   1.411       .  A
C88          C96   1.407       .  A
C89          C98   1.398       .  A
C89          C90   1.401       .  A
C90          C91   1.395       .  A
C90         H101   1.084       .  S
C91          C92   1.404       .  A
C91         H102   1.084       .  S
C92          C93   1.397       .  A
C93          C94   1.425       .  A
C93         H103   1.078       .  S
C94          C95   1.426       .  A
C95         H104   1.081       .  S
C96          C97   1.408       .  A
C96         H105   1.084       .  S
C97          C98   1.405       .  A
C98         H106   1.084       .  S
C107        C108   1.394       .  A
C107        C112   1.400       .  A
C107        H123   1.084       .  S
C108        C109   1.404       .  A
C108        H124   1.084       .  S
C109        C119   1.395       .  A
C109        C110   1.404       .  A
C110        C116   1.407       .  A
C110        C111   1.412       .  A
C111        C113   1.411       .  A
C111        C112   1.411       .  A
C112        C120   1.397       .  A
C113        C122   1.409       .  A
C113        C114   1.405       .  A
C114        C115   1.403       .  A
C114        H125   1.083       .  S
C115        C116   1.405       .  A
C115        H126   1.084       .  S
C116        C117   1.408       .  A
C117        C118   1.427       .  A
C117        H127   1.081       .  S
C118        C119   1.423       .  A
C119        H128   1.076       .  S
C120        C121   1.404       .  A
C120        H129   1.084       .  S
C121        C122   1.409       .  A
C122        H130   1.084       .  S
C131        C132   1.395       .  A
C131        C136   1.404       .  A
C131        H147   1.084       .  S
C132        C133   1.401       .  A
C132        H148   1.084       .  S
C133        C143   1.398       .  A
C133        C134   1.411       .  A
C134        C140   1.411       .  A
C134        C135   1.412       .  A
C135        C137   1.407       .  A
C135        C136   1.405       .  A
C136        C144   1.397       .  A
C137        C146   1.406       .  A
C137        C138   1.405       .  A
C138        C139   1.402       .  A
C138        H149   1.084       .  S
C139        C140   1.405       .  A
C139        H150   1.083       .  S
C140        C141   1.408       .  A
C141        C142   1.408       .  A
C141        H151   1.084       .  S
C142        C143   1.404       .  A
C143        H152   1.084       .  S
C144        C145   1.422       .  A
C144        H153   1.075       .  S
C145        C146   1.425       .  A
C146        H154   1.081       .  S
C155        C156   1.393       .  A
C155        C160   1.400       .  A
C155        H171   1.084       .  S
C156        C157   1.404       .  A
C156        H172   1.084       .  S
C157        C167   1.394       .  A
C157        C158   1.404       .  A
C158        C164   1.407       .  A
C158        C159   1.413       .  A
C159        C161   1.411       .  A
C159        C160   1.411       .  A
C160        C168   1.396       .  A
C161        C170   1.411       .  A
C161        C162   1.406       .  A
C162        C163   1.404       .  A
C162        H173   1.083       .  S
C163        C164   1.406       .  A
C163        H174   1.084       .  S
C164        C165   1.410       .  A
C165        C166   1.428       .  A
C165        H175   1.082       .  S
C166        C167   1.424       .  A
C167        H176   1.077       .  S
C168        C169   1.403       .  A
C168        H177   1.084       .  S
C169        C170   1.411       .  A
C170        H178   1.084       .  S
C179        C180   1.403       .  A
C179        C184   1.406       .  A
C179        H195   1.083   1_545  S
C180        C181   1.405       .  A
C180        H196   1.084       .  S
C181        C191   1.409       .  A
C181        C182   1.408       .  A
C182        C188   1.403       .  A
C182        C183   1.413       .  A
C183        C185   1.412       .  A
C183        C184   1.411       .  A
C184        C192   1.409       .  A
C185        C194   1.398       .  A
C185        C186   1.401       .  A
C186        C187   1.394       .  A
C186        H197   1.084       .  S
C187        C188   1.404       .  A
C187        H198   1.084       .  S
C188        C189   1.395       .  A
C189        C190   1.425       .  A
C189        H199   1.076       .  S
C190        C191   1.426       .  A
C191        H200   1.082       .  S
C192        C193   1.410       .  A
C192        H201   1.084   1_545  S
C193        C194   1.404       .  A
C194        H202   1.084       .  S
C203        C204   1.394       .  A
C203        C208   1.401       .  A
C203        H219   1.084   1_545  S
C204        C205   1.404       .  A
C204        H220   1.084       .  S
C205        C215   1.397       .  A
C205        C206   1.405       .  A
C206        C212   1.406       .  A
C206        C207   1.412       .  A
C207        C209   1.412       .  A
C207        C208   1.411       .  A
C208        C216   1.397       .  A
C209        C218   1.409       .  A
C209        C210   1.405       .  A
C210        C211   1.403       .  A
C210        H221   1.083       .  S
C211        C212   1.405       .  A
C211        H222   1.083       .  S
C212        C213   1.406       .  A
C213        C214   1.426       .  A
C213        H223   1.080       .  S
C214        C215   1.422       .  A
C215        H224   1.074       .  S
C216        C217   1.404       .  A
C216        H225   1.084   1_545  S
C217        C218   1.409       .  A
C218        H226   1.084       .  S
C227        C228   1.404       .  A
C227        C232   1.406       .  A
C227        H243   1.084       .  S
C228        C229   1.406       .  A
C228        H244   1.083       .  S
C229        C239   1.410       .  A
C229        C230   1.410       .  A
C230        C236   1.412       .  A
C230        C231   1.414       .  A
C231        C233   1.403       .  A
C231        C232   1.408       .  A
C232        C240   1.411       .  A
C233        C242   1.395       .  A
C233        C234   1.404       .  A
C234        C235   1.394       .  A
C234        H245   1.084       .  S
C235        C236   1.400       .  A
C235        H246   1.084       .  S
C236        C237   1.398       .  A
C237        C238   1.403       .  A
C237        H247   1.084       .  S
C238        C239   1.410       .  A
C239        H248   1.084       .  S
C240        C241   1.428       .  A
C240        H249   1.083       .  S
C241        C242   1.425       .  A
C242        H250   1.075       .  S
C251        C252   1.394       .  A
C251        C256   1.401       .  A
C251        H267   1.084       .  S
C252        C253   1.404       .  A
C252        H268   1.084       .  S
C253        C263   1.395       .  A
C253        C254   1.404       .  A
C254        C260   1.407       .  A
C254        C255   1.412       .  A
C255        C257   1.411       .  A
C255        C256   1.411       .  A
C256        C264   1.397       .  A
C257        C266   1.407       .  A
C257        C258   1.405       .  A
C258        C259   1.402       .  A
C258        H269   1.083       .  S
C259        C260   1.405       .  A
C259        H270   1.083       .  S
C260        C261   1.406       .  A
C261        C262   1.426       .  A
C261        H271   1.081       .  S
C262        C263   1.423       .  A
C263        H272   1.076       .  S
C264        C265   1.404       .  A
C264        H273   1.084       .  S
C265        C266   1.408       .  A
C266        H274   1.084       .  S
C275        C276   1.394       .  A
C275        C280   1.401       .  A
C275        H291   1.084   1_545  S
C276        C277   1.404       .  A
C276        H292   1.084       .  S
C277        C287   1.396       .  A
C277        C278   1.404       .  A
C278        C284   1.407       .  A
C278        C279   1.413       .  A
C279        C281   1.411       .  A
C279        C280   1.411       .  A
C280        C288   1.398       .  A
C281        C290   1.408       .  A
C281        C282   1.405       .  A
C282        C283   1.403       .  A
C282        H293   1.083       .  S
C283        C284   1.405       .  A
C283        H294   1.084       .  S
C284        C285   1.408       .  A
C285        C286   1.426       .  A
C285        H295   1.082       .  S
C286        C287   1.424       .  A
C287        H296   1.076       .  S
C288        C289   1.404       .  A
C288        H297   1.084   1_545  S
C289        C290   1.409       .  A
C290        H298   1.084       .  S
C299        C300   1.403       .  A
C299        C304   1.405       .  A
C299        H315   1.083   1_545  S
C300        C301   1.405       .  A
C300        H316   1.084       .  S
C301        C311   1.409       .  A
C301        C302   1.408       .  A
C302        C308   1.402       .  A
C302        C303   1.412       .  A
C303        C305   1.412       .  A
C303        C304   1.410       .  A
C304        C312   1.407       .  A
C305        C314   1.398       .  A
C305        C306   1.400       .  A
C306        C307   1.394       .  A
C306        H317   1.084       .  S
C307        C308   1.405       .  A
C307        H318   1.084       .  S
C308        C309   1.394       .  A
C309        C310   1.426       .  A
C309        H319   1.076       .  S
C310        C311   1.426       .  A
C311        H320   1.082       .  S
C312        C313   1.409       .  A
C312        H321   1.084   1_545  S
C313        C314   1.404       .  A
C314        H322   1.084       .  S
C323        C324   1.402       .  A
C323        C328   1.405       .  A
C323        H339   1.083       .  S
C324        C325   1.405       .  A
C324        H340   1.083       .  S
C325        C335   1.405       .  A
C325        C326   1.407       .  A
C326        C332   1.404       .  A
C326        C327   1.411       .  A
C327        C329   1.411       .  A
C327        C328   1.411       .  A
C328        C336   1.407       .  A
C329        C338   1.397       .  A
C329        C330   1.401       .  A
C330        C331   1.394       .  A
C330        H341   1.084       .  S
C331        C332   1.404       .  A
C331        H342   1.084       .  S
C332        C333   1.395       .  A
C333        C334   1.423       .  A
C333        H343   1.076       .  S
C334        C335   1.426       .  A
C335        H344   1.080       .  S
C336        C337   1.408       .  A
C336        H345   1.084       .  S
C337        C338   1.404       .  A
C338        H346   1.084       .  S
C347        C348   1.401       .  A
C347        C352   1.404       .  A
C347        H363   1.084       .  S
C348        C349   1.405       .  A
C348        H364   1.083       .  S
C349        C359   1.407       .  A
C349        C350   1.411       .  A
C350        C356   1.411       .  A
C350        C351   1.412       .  A
C351        C353   1.404       .  A
C351        C352   1.407       .  A
C352        C360   1.405       .  A
C353        C362   1.397       .  A
C353        C354   1.404       .  A
C354        C355   1.395       .  A
C354        H365   1.084       .  S
C355        C356   1.402       .  A
C355        H366   1.084       .  S
C356        C357   1.399       .  A
C357        C358   1.405       .  A
C357        H367   1.084       .  S
C358        C359   1.408       .  A
C359        H368   1.084       .  S
C360        C361   1.425       .  A
C360        H369   1.082       .  S
C361        C362   1.425       .  A
C362        H370   1.078       .  S
In371       O373   2.230       .  S
In371       O374   2.260       .  S
In371       O382   2.236       .  S
In371       O376   2.259       .  S
In371       O378   2.246       .  S
In371       O379   2.246       .  S
In371       O380   2.249       .  S
In371       O383   2.250       .  S
C372        O378   1.260       .  A
C372        O380   1.261       .  A
C372        C413   1.465       .  S
O373        C381   1.260       .  A
O374        C381   1.261       .  A
C375        O382   1.260       .  A
C375        O376   1.262       .  A
C375        C728   1.478       .  S
C377        O379   1.259       .  A
C377        O383   1.260       .  A
C377        C403   1.464       .  S
C381        C707   1.476       .  S
In384       O386   2.235   1_565  S
In384       O387   2.255       .  S
In384       O395   2.231       .  S
In384       O389   2.260   1_565  S
In384       O391   2.245   1_565  S
In384       O392   2.241       .  S
In384       O393   2.241   1_565  S
In384       O396   2.244       .  S
C385        O391   1.259       .  A
C385        O393   1.259       .  A
C385        C439   1.461       .  S
O386        C394   1.261       .  A
O387        C394   1.261   1_565  A
C388        O395   1.261   1_545  A
C388        O389   1.262       .  A
C388        C659   1.478       .  S
C390        O392   1.259       .  A
C390        O396   1.260       .  A
C390        C398   1.460       .  S
C394        C683   1.477       .  S
In397       O399   2.230       .  S
In397       O400   2.262       .  S
In397       O408   2.239       .  S
In397       O402   2.261       .  S
In397       O404   2.239       .  S
In397       O405   2.251       .  S
In397       O406   2.245       .  S
In397       O409   2.246       .  S
C398        O404   1.259       .  A
C398        O406   1.260       .  A
O399        C407   1.260       .  A
O400        C407   1.262       .  A
C401        O408   1.261       .  A
C401        O402   1.260       .  A
C401        C608   1.480       .  S
C403        O405   1.260       .  A
C403        O409   1.260       .  A
C407        C635   1.477       .  S
C410        C584   1.584       .  S
C410        C680   1.591       .  S
C410        C731   1.588       .  S
C411        C560   1.591       .  S
C411        C656   1.588       .  S
C411        C704   1.585       .  S
In412       O414   2.231       .  S
In412       O415   2.267       .  S
In412       O423   2.231       .  S
In412       O417   2.263       .  S
In412       O419   2.251   1_455  S
In412       O420   2.242       .  S
In412       O421   2.250   1_455  S
In412       O424   2.242       .  S
C413        O419   1.259       .  A
C413        O421   1.260       .  A
O414        C422   1.261       .  A
O415        C422   1.261       .  A
C416        O423   1.260       .  A
C416        O417   1.261       .  A
C416        C512   1.478       .  S
C418        O420   1.260       .  A
C418        O424   1.260       .  A
C418        C426   1.461       .  S
C422        C539   1.480       .  S
In425       O427   2.227       .  S
In425       O428   2.265   1_565  S
In425       O436   2.237   1_565  S
In425       O430   2.263       .  S
In425       O432   2.242       .  S
In425       O433   2.250   1_565  S
In425       O434   2.246       .  S
In425       O437   2.250   1_565  S
C426        O432   1.259       .  A
C426        O434   1.260       .  A
O427        C435   1.260   1_565  A
O428        C435   1.262       .  A
C429        O436   1.260       .  A
C429        O430   1.261   1_545  A
C429        C563   1.480       .  S
C431        O433   1.260       .  A
C431        O437   1.260       .  A
C431        C444   1.466       .  S
C435        C587   1.478       .  S
In438       O440   2.232       .  S
In438       O441   2.262       .  S
In438       O449   2.232       .  S
In438       O443   2.260       .  S
In438       O445   2.241   1_455  S
In438       O446   2.251       .  S
In438       O447   2.247   1_455  S
In438       O450   2.249       .  S
C439        O445   1.259       .  A
C439        O447   1.260       .  A
O440        C448   1.260       .  A
O441        C448   1.262       .  A
C442        O449   1.261       .  A
C442        O443   1.261       .  A
C442        C491   1.478       .  S
C444        O446   1.260       .  A
C444        O450   1.260       .  A
C448        C467   1.478       .  S
C451        C488   1.588       .  S
C451        C536   1.591       .  S
C451        C632   1.585       .  S
C452        C464   1.589       .  S
C452        C515   1.583       .  S
C452        C611   1.593       .  S
C453        C454   1.402       .  A
C453        C458   1.405       .  A
C453        H469   1.083       .  S
C454        C455   1.405       .  A
C454        H470   1.084       .  S
C455        C465   1.406       .  A
C455        C456   1.407       .  A
C456        C462   1.404       .  A
C456        C457   1.412       .  A
C457        C459   1.411       .  A
C457        C458   1.411       .  A
C458        C466   1.407       .  A
C459        C468   1.398       .  A
C459        C460   1.401       .  A
C460        C461   1.395       .  A
C460        H471   1.084       .  S
C461        C462   1.404       .  A
C461        H472   1.084       .  S
C462        C463   1.397       .  A
C463        C464   1.425       .  A
C463        H473   1.078       .  S
C464        C465   1.426       .  A
C465        H474   1.081       .  S
C466        C467   1.408       .  A
C466        H475   1.084       .  S
C467        C468   1.405       .  A
C468        H476   1.084       .  S
C477        C478   1.394       .  A
C477        C482   1.400       .  A
C477        H493   1.084       .  S
C478        C479   1.404       .  A
C478        H494   1.084       .  S
C479        C489   1.395       .  A
C479        C480   1.404       .  A
C480        C486   1.407       .  A
C480        C481   1.412       .  A
C481        C483   1.411       .  A
C481        C482   1.411       .  A
C482        C490   1.397       .  A
C483        C492   1.409       .  A
C483        C484   1.405       .  A
C484        C485   1.403       .  A
C484        H495   1.083       .  S
C485        C486   1.405       .  A
C485        H496   1.084       .  S
C486        C487   1.408       .  A
C487        C488   1.427       .  A
C487        H497   1.081       .  S
C488        C489   1.423       .  A
C489        H498   1.076       .  S
C490        C491   1.404       .  A
C490        H499   1.084       .  S
C491        C492   1.409       .  A
C492        H500   1.084       .  S
C501        C502   1.395       .  A
C501        C506   1.404       .  A
C501        H517   1.084       .  S
C502        C503   1.401       .  A
C502        H518   1.084       .  S
C503        C513   1.398       .  A
C503        C504   1.411       .  A
C504        C510   1.411       .  A
C504        C505   1.412       .  A
C505        C507   1.407       .  A
C505        C506   1.405       .  A
C506        C514   1.397       .  A
C507        C516   1.406       .  A
C507        C508   1.405       .  A
C508        C509   1.402       .  A
C508        H519   1.084       .  S
C509        C510   1.405       .  A
C509        H520   1.083       .  S
C510        C511   1.408       .  A
C511        C512   1.408       .  A
C511        H521   1.084       .  S
C512        C513   1.404       .  A
C513        H522   1.084       .  S
C514        C515   1.422       .  A
C514        H523   1.075       .  S
C515        C516   1.425       .  A
C516        H524   1.081       .  S
C525        C526   1.393       .  A
C525        C530   1.400       .  A
C525        H541   1.084       .  S
C526        C527   1.404       .  A
C526        H542   1.084       .  S
C527        C537   1.394       .  A
C527        C528   1.404       .  A
C528        C534   1.407       .  A
C528        C529   1.413       .  A
C529        C531   1.411       .  A
C529        C530   1.411       .  A
C530        C538   1.396       .  A
C531        C540   1.411       .  A
C531        C532   1.406       .  A
C532        C533   1.404       .  A
C532        H543   1.083       .  S
C533        C534   1.406       .  A
C533        H544   1.084       .  S
C534        C535   1.410       .  A
C535        C536   1.428       .  A
C535        H545   1.082       .  S
C536        C537   1.424       .  A
C537        H546   1.077       .  S
C538        C539   1.403       .  A
C538        H547   1.084       .  S
C539        C540   1.411       .  A
C540        H548   1.084       .  S
C549        C550   1.403       .  A
C549        C554   1.406       .  A
C549        H565   1.083   1_545  S
C550        C551   1.405       .  A
C550        H566   1.084       .  S
C551        C561   1.409       .  A
C551        C552   1.408       .  A
C552        C558   1.403       .  A
C552        C553   1.413       .  A
C553        C555   1.412       .  A
C553        C554   1.411       .  A
C554        C562   1.409       .  A
C555        C564   1.398       .  A
C555        C556   1.401       .  A
C556        C557   1.394       .  A
C556        H567   1.084       .  S
C557        C558   1.404       .  A
C557        H568   1.084       .  S
C558        C559   1.395       .  A
C559        C560   1.425       .  A
C559        H569   1.076       .  S
C560        C561   1.426       .  A
C561        H570   1.082       .  S
C562        C563   1.410       .  A
C562        H571   1.084   1_545  S
C563        C564   1.404       .  A
C564        H572   1.084       .  S
C573        C574   1.394       .  A
C573        C578   1.401       .  A
C573        H589   1.084   1_545  S
C574        C575   1.404       .  A
C574        H590   1.084       .  S
C575        C585   1.397       .  A
C575        C576   1.405       .  A
C576        C582   1.406       .  A
C576        C577   1.412       .  A
C577        C579   1.412       .  A
C577        C578   1.411       .  A
C578        C586   1.397       .  A
C579        C588   1.409       .  A
C579        C580   1.405       .  A
C580        C581   1.403       .  A
C580        H591   1.083       .  S
C581        C582   1.405       .  A
C581        H592   1.083       .  S
C582        C583   1.406       .  A
C583        C584   1.426       .  A
C583        H593   1.080       .  S
C584        C585   1.422       .  A
C585        H594   1.074       .  S
C586        C587   1.404       .  A
C586        H595   1.084   1_545  S
C587        C588   1.409       .  A
C588        H596   1.084       .  S
C597        C598   1.404       .  A
C597        C602   1.406       .  A
C597        H613   1.084       .  S
C598        C599   1.406       .  A
C598        H614   1.083       .  S
C599        C609   1.410       .  A
C599        C600   1.410       .  A
C600        C606   1.412       .  A
C600        C601   1.414       .  A
C601        C603   1.403       .  A
C601        C602   1.408       .  A
C602        C610   1.411       .  A
C603        C612   1.395       .  A
C603        C604   1.404       .  A
C604        C605   1.394       .  A
C604        H615   1.084       .  S
C605        C606   1.400       .  A
C605        H616   1.084       .  S
C606        C607   1.398       .  A
C607        C608   1.403       .  A
C607        H617   1.084       .  S
C608        C609   1.410       .  A
C609        H618   1.084       .  S
C610        C611   1.428       .  A
C610        H619   1.083       .  S
C611        C612   1.425       .  A
C612        H620   1.075       .  S
C621        C622   1.394       .  A
C621        C626   1.401       .  A
C621        H637   1.084       .  S
C622        C623   1.404       .  A
C622        H638   1.084       .  S
C623        C633   1.395       .  A
C623        C624   1.404       .  A
C624        C630   1.407       .  A
C624        C625   1.412       .  A
C625        C627   1.411       .  A
C625        C626   1.411       .  A
C626        C634   1.397       .  A
C627        C636   1.407       .  A
C627        C628   1.405       .  A
C628        C629   1.402       .  A
C628        H639   1.083       .  S
C629        C630   1.405       .  A
C629        H640   1.083       .  S
C630        C631   1.406       .  A
C631        C632   1.426       .  A
C631        H641   1.081       .  S
C632        C633   1.423       .  A
C633        H642   1.076       .  S
C634        C635   1.404       .  A
C634        H643   1.084       .  S
C635        C636   1.408       .  A
C636        H644   1.084       .  S
C645        C646   1.394       .  A
C645        C650   1.401       .  A
C645        H661   1.084   1_545  S
C646        C647   1.404       .  A
C646        H662   1.084       .  S
C647        C657   1.396       .  A
C647        C648   1.404       .  A
C648        C654   1.407       .  A
C648        C649   1.413       .  A
C649        C651   1.411       .  A
C649        C650   1.411       .  A
C650        C658   1.398       .  A
C651        C660   1.408       .  A
C651        C652   1.405       .  A
C652        C653   1.403       .  A
C652        H663   1.083       .  S
C653        C654   1.405       .  A
C653        H664   1.084       .  S
C654        C655   1.408       .  A
C655        C656   1.426       .  A
C655        H665   1.082       .  S
C656        C657   1.424       .  A
C657        H666   1.076       .  S
C658        C659   1.404       .  A
C658        H667   1.084   1_545  S
C659        C660   1.409       .  A
C660        H668   1.084       .  S
C669        C670   1.403       .  A
C669        C674   1.405       .  A
C669        H685   1.083   1_545  S
C670        C671   1.405       .  A
C670        H686   1.084       .  S
C671        C681   1.409       .  A
C671        C672   1.408       .  A
C672        C678   1.402       .  A
C672        C673   1.412       .  A
C673        C675   1.412       .  A
C673        C674   1.410       .  A
C674        C682   1.407       .  A
C675        C684   1.398       .  A
C675        C676   1.400       .  A
C676        C677   1.394       .  A
C676        H687   1.084       .  S
C677        C678   1.405       .  A
C677        H688   1.084       .  S
C678        C679   1.394       .  A
C679        C680   1.426       .  A
C679        H689   1.076       .  S
C680        C681   1.426       .  A
C681        H690   1.082       .  S
C682        C683   1.409       .  A
C682        H691   1.084   1_545  S
C683        C684   1.404       .  A
C684        H692   1.084       .  S
C693        C694   1.402       .  A
C693        C698   1.405       .  A
C693        H709   1.083       .  S
C694        C695   1.405       .  A
C694        H710   1.083       .  S
C695        C705   1.405       .  A
C695        C696   1.407       .  A
C696        C702   1.404       .  A
C696        C697   1.411       .  A
C697        C699   1.411       .  A
C697        C698   1.411       .  A
C698        C706   1.407       .  A
C699        C708   1.397       .  A
C699        C700   1.401       .  A
C700        C701   1.394       .  A
C700        H711   1.084       .  S
C701        C702   1.404       .  A
C701        H712   1.084       .  S
C702        C703   1.395       .  A
C703        C704   1.423       .  A
C703        H713   1.076       .  S
C704        C705   1.426       .  A
C705        H714   1.080       .  S
C706        C707   1.408       .  A
C706        H715   1.084       .  S
C707        C708   1.404       .  A
C708        H716   1.084       .  S
C717        C718   1.401       .  A
C717        C722   1.404       .  A
C717        H733   1.084       .  S
C718        C719   1.405       .  A
C718        H734   1.083       .  S
C719        C729   1.407       .  A
C719        C720   1.411       .  A
C720        C726   1.411       .  A
C720        C721   1.412       .  A
C721        C723   1.404       .  A
C721        C722   1.407       .  A
C722        C730   1.405       .  A
C723        C732   1.397       .  A
C723        C724   1.404       .  A
C724        C725   1.395       .  A
C724        H735   1.084       .  S
C725        C726   1.402       .  A
C725        H736   1.084       .  S
C726        C727   1.399       .  A
C727        C728   1.405       .  A
C727        H737   1.084       .  S
C728        C729   1.408       .  A
C729        H738   1.084       .  S
C730        C731   1.425       .  A
C730        H739   1.082       .  S
C731        C732   1.425       .  A
C732        H740   1.078       .  S
