geometry optimzed in LAMMPS
_audit_creation_date              2020-11-30 
_audit_creation_method            'lammps2cif' 
_symmetry_space_group_name_H-M    'P1' 
_symmetry_Int_Tables_number       1 
_symmetry_cell_setting            triclinic 
loop_ 
_symmetry_equiv_pos_as_xyz 
  x,y,z 
_cell_length_a                    59.6185034 
_cell_length_b                    46.46417462658981 
_cell_length_c                    20.08194234661263 
_cell_angle_alpha                 90.10163589850664 
_cell_angle_beta                  89.94731294549058 
_cell_angle_gamma                 89.96408856251912 
loop_ 
_atom_site_label 
_atom_site_type_symbol 
_atom_site_fract_x 
_atom_site_fract_y 
_atom_site_fract_z 
_atom_site_charge 
C1          C  0.82653836  0.48829335  0.65337154     0.82500
N2          N  0.82564891  0.50615448  0.70717790    -0.75800
C3          C  0.80747112  0.52339163  0.71735972     0.85000
N4          N  0.79019106  0.52285514  0.67312453    -0.75700
C5          C  0.79096378  0.50516684  0.61905920     0.85100
N6          N  0.80919260  0.48797704  0.60926412    -0.77400
N7          N  0.99001575  0.45943221  0.43024404    -0.25000
N8          N  0.97241965  0.47607135  0.44129673    -0.32800
C9          C  0.97508887  0.50130096  0.40970923     0.03400
C10         C  0.99538105  0.50065275  0.37700190     0.09400
C11         C  0.00454253  0.47387025  0.39095098    -0.03700
H12         H  0.96317994  0.51888218  0.41101217     0.10100
H13         H  0.02055369  0.46559208  0.37414791     0.11300
Cu14       Cu  0.94575749  0.46375792  0.49941109     0.44200
Cu15       Cu  0.99208617  0.41801673  0.47141243     0.42000
Cu16       Cu  0.94274409  0.39235381  0.57028382     0.43900
N17         N  0.91887612  0.44980848  0.55459086    -0.32400
N18         N  0.91683102  0.42387057  0.58106067    -0.26600
C19         C  0.89663398  0.42272610  0.61228078    -0.02700
C20         C  0.88590470  0.44922372  0.60455061     0.09500
C21         C  0.90055571  0.46562110  0.56787906     0.03300
H22         H  0.89021486  0.40410259  0.63831290     0.11000
H23         H  0.89803674  0.48753746  0.55133849     0.10000
N24         N  0.97211245  0.36736233  0.54953803    -0.33800
N25         N  0.98949858  0.37701476  0.51472429    -0.26000
C26         C  0.00517425  0.35610896  0.51048084    -0.01200
C27         C  0.99760918  0.33199033  0.54387080     0.07400
C28         C  0.97655331  0.33985745  0.56794748     0.05500
H29         H  0.02096006  0.35826997  0.48432492     0.10600
H30         H  0.96525613  0.32648841  0.59656589     0.09400
C31         C  0.21029471  0.59858145  0.18749222     0.82500
N32         N  0.21200317  0.57909623  0.13729919    -0.75800
C33         C  0.23004718  0.56135474  0.13327406     0.85000
N34         N  0.24644027  0.56295185  0.18015071    -0.75700
C35         C  0.24480721  0.58240265  0.23067696     0.85100
N36         N  0.22665460  0.60010877  0.23447749    -0.77400
N37         N  0.03239922  0.61292696  0.24699511    -0.25000
N38         N  0.05031169  0.59655830  0.23858556    -0.32800
C39         C  0.04571395  0.56951610  0.25771128     0.03400
C40         C  0.02378331  0.56863764  0.27904775     0.09400
C41         C  0.01573482  0.59648672  0.27191723    -0.03700
H42         H  0.05772873  0.55204695  0.25820570     0.10100
H43         H  0.99928668  0.60437747  0.28569814     0.11300
Cu44       Cu  0.08081728  0.61225861  0.20835116     0.44200
Cu45       Cu  0.03330272  0.65727523  0.22800884     0.42000
Cu46       Cu  0.08984563  0.68898158  0.19916981     0.43900
N47         N  0.11200575  0.63045974  0.19895753    -0.32400
N48         N  0.11607223  0.65842443  0.19636301    -0.26600
C49         C  0.13856934  0.66220340  0.19351757    -0.02700
C50         C  0.14869486  0.63525585  0.19452234     0.09500
C51         C  0.13138977  0.61581903  0.19795341     0.03300
H52         H  0.14687863  0.68287695  0.19162836     0.11000
H53         H  0.13274430  0.59262367  0.20067761     0.10000
N54         N  0.05980413  0.71295347  0.20715498    -0.33800
N55         N  0.03970497  0.70140875  0.21676403    -0.26000
C56         C  0.02433958  0.72267013  0.22089192    -0.01200
C57         C  0.03510527  0.74882979  0.21374725     0.07400
C58         C  0.05755752  0.74190551  0.20515762     0.05500
H59         H  0.00662492  0.71931475  0.22968566     0.10600
H60         H  0.07130726  0.75684102  0.19879542     0.09400
C61         C  0.20434900  0.10295037  0.65993125     0.82500
N62         N  0.20491485  0.08658957  0.71605929    -0.75800
C63         C  0.22318907  0.07006101  0.72986221     0.85000
N64         N  0.24089820  0.06981890  0.68708557    -0.75700
C65         C  0.24041295  0.08605569  0.63080537     0.85100
N66         N  0.22209554  0.10251554  0.61729278    -0.77400
N67         N  0.04234686  0.12638494  0.43565803    -0.25000
N68         N  0.06206684  0.11340537  0.43441435    -0.32800
C69         C  0.06004069  0.08733844  0.40607023     0.03400
C70         C  0.03795872  0.08357449  0.38827912     0.09400
C71         C  0.02706372  0.10863395  0.40776553    -0.03700
H72         H  0.07355441  0.07193721  0.40076741     0.10100
H73         H  0.00935172  0.11335563  0.40320222     0.11300
Cu74       Cu  0.09034275  0.13048605  0.47699775     0.44200
Cu75       Cu  0.03854676  0.16737254  0.47857829     0.42000
Cu76       Cu  0.08703650  0.19531161  0.57633357     0.43900
N77         N  0.11543439  0.14326660  0.54025347    -0.32400
N78         N  0.11476656  0.16631269  0.57903575    -0.26600
C79         C  0.13370135  0.16644748  0.61647634    -0.02700
C80         C  0.14652455  0.14241440  0.59950970     0.09500
C81         C  0.13436260  0.12839436  0.55132633     0.03300
H82         H  0.13773529  0.18257076  0.65348762     0.11000
H83         H  0.13868018  0.10835385  0.52693028     0.10000
N84         N  0.05717550  0.21910685  0.55594104    -0.33800
N85         N  0.04008335  0.20873170  0.52102259    -0.26000
C86         C  0.02416552  0.22926289  0.51536115    -0.01200
C87         C  0.03126496  0.25384604  0.54804546     0.07400
C88         C  0.05230392  0.24666076  0.57314163     0.05500
H89         H  0.00860378  0.22659361  0.48837170     0.10600
H90         H  0.06339345  0.26060725  0.60102532     0.09400
C91         C  0.82559167  0.96840876  0.18369153     0.82500
N92         N  0.82175525  0.98577327  0.13052781    -0.75800
C93         C  0.80269017  0.00173591  0.12728311     0.85000
N94         N  0.78759567  0.00067638  0.17788156    -0.75700
C95         C  0.79137732  0.98344646  0.23128026     0.85100
N96         N  0.81046315  0.96745728  0.23436097    -0.77400
N97         N  0.00280815  0.96345091  0.29204438    -0.25000
N98         N  0.98412359  0.97851724  0.28562664    -0.32800
C99         C  0.98791882  0.00613265  0.30168834     0.03400
C100        C  0.01009885  0.00883121  0.31913533     0.09400
C101        C  0.01920617  0.98144569  0.31265967    -0.03700
H102        H  0.97536582  0.02296078  0.30092360     0.10100
H103        H  0.03635447  0.97508872  0.32242779     0.11300
Cu104      Cu  0.95413428  0.96128454  0.25609862     0.44200
Cu105      Cu  0.00358414  0.91897845  0.27178564     0.42000
Cu106      Cu  0.94893729  0.88611588  0.22083624     0.43900
N107        N  0.92438750  0.94273296  0.22869956    -0.32400
N108        N  0.92172739  0.91505143  0.21560765    -0.26600
C109        C  0.89989772  0.91052667  0.20043700    -0.02700
C110        C  0.88872168  0.93673372  0.20442841     0.09500
C111        C  0.90474056  0.95651408  0.22236296     0.03300
H112        H  0.89272781  0.88983799  0.18787640     0.11000
H113        H  0.90231272  0.97931207  0.23080496     0.10000
N114        N  0.97949503  0.86348643  0.22997395    -0.33800
N115        N  0.99887465  0.87519301  0.24806178    -0.26000
C116        C  0.01480448  0.85450634  0.24842524    -0.01200
C117        C  0.00512723  0.82864779  0.22977939     0.07400
C118        C  0.98277341  0.83512926  0.21847571     0.05500
H119        H  0.03221390  0.85807206  0.26119647     0.10600
H120        H  0.96980513  0.82029240  0.20288869     0.09400
C121        C  0.81491900  0.10736340  0.95057091     0.82500
N122        N  0.81387881  0.08495864  0.99364070    -0.75800
C123        C  0.79867337  0.06363413  0.98464108     0.85000
N124        N  0.78440665  0.06465297  0.93197960    -0.75700
C125        C  0.78540946  0.08706912  0.88855531     0.85100
N126        N  0.80072473  0.10839547  0.89777441    -0.77400
N127        N  0.97830359  0.13504328  0.11386049    -0.25000
N128        N  0.95902108  0.12253735  0.12829867    -0.32800
C129        C  0.96294895  0.09585161  0.15134831     0.03400
C130        C  0.98583968  0.09154374  0.15189073     0.09400
C131        C  0.99509571  0.11666964  0.12759085    -0.03700
H132        H  0.95007089  0.08019269  0.16264091     0.10100
H133        H  0.01261472  0.12068058  0.11691924     0.11300
Cu134      Cu  0.92858824  0.14080452  0.10493879     0.44200
Cu135      Cu  0.98024889  0.17501822  0.06824226     0.42000
Cu136      Cu  0.92873156  0.20529836  0.99940450     0.43900
N137        N  0.90136534  0.15509220  0.05139313    -0.32400
N138        N  0.90103508  0.17774116  0.01146652    -0.26600
C139        C  0.88109781  0.17819190  0.97945070    -0.02700
C140        C  0.86858691  0.15484910  0.00102958     0.09500
C141        C  0.88194096  0.14074618  0.04615718     0.03300
H142        H  0.87642279  0.19368710  0.94178256     0.11000
H143        H  0.87828445  0.12064892  0.07104627     0.10000
N144        N  0.96009256  0.22603867  0.99560378    -0.33800
N145        N  0.97863675  0.21454144  0.02031548    -0.26000
C146        C  0.99582579  0.23290425  0.01158476    -0.01200
C147        C  0.98788466  0.25717350  0.97997694     0.07400
C148        C  0.96514937  0.25224829  0.97067755     0.05500
H149        H  0.01279632  0.22909689  0.02851802     0.10600
H150        H  0.95311840  0.26681021  0.94851796     0.09400
C151        C  0.20365338  0.98595183  0.96425709     0.82500
N152        N  0.20459089  0.00298029  0.90936111    -0.75800
C153        C  0.22310422  0.01917085  0.89690759     0.85000
N154        N  0.24071091  0.01844902  0.94001563    -0.75700
C155        C  0.23983131  0.00150086  0.99521872     0.85100
N156        N  0.22123975  0.98537535  0.00728526    -0.77400
N157        N  0.03056584  0.97183937  0.12159928    -0.25000
N158        N  0.04874310  0.98805205  0.11966073    -0.32800
C159        C  0.04316236  0.01541882  0.13357572     0.03400
C160        C  0.02039070  0.01638999  0.14495561     0.09400
C161        C  0.01278670  0.98853560  0.13653468    -0.03700
H162        H  0.05473356  0.03335309  0.13349813     0.10100
H163        H  0.99564151  0.98104166  0.13983086     0.11300
Cu164      Cu  0.07981049  0.97235933  0.09318261     0.44200
Cu165      Cu  0.03155451  0.92813862  0.10066389     0.42000
Cu166      Cu  0.08530872  0.89764423  0.04184769     0.43900
N167        N  0.10883101  0.95514261  0.05409549    -0.32400
N168        N  0.11136669  0.92813706  0.03436314    -0.26600
C169        C  0.13236958  0.92507787  0.00973466    -0.02700
C170        C  0.14321994  0.95143696  0.01468949     0.09500
C171        C  0.12782320  0.96984596  0.04282723     0.03300
H172        H  0.13913151  0.90531379  0.98940388     0.11000
H173        H  0.13012412  0.99246677  0.05371421     0.10000
N174        N  0.05543133  0.87392597  0.05397281    -0.33800
N175        N  0.03629471  0.88527633  0.07511096    -0.26000
C176        C  0.02033404  0.86481512  0.07589487    -0.01200
C177        C  0.02972964  0.83934617  0.05439726     0.07400
C178        C  0.05197525  0.84574575  0.04090751     0.05500
H179        H  0.00307082  0.86837035  0.09038877     0.10600
H180        H  0.06462876  0.83111387  0.02217213     0.09400
C181        C  0.20706887  0.46582330  0.93048427     0.82500
N182        N  0.22136783  0.46590358  0.87773907    -0.75800
C183        C  0.23896283  0.48453864  0.87654072     0.85000
N184        N  0.24216268  0.50314925  0.92805889    -0.75700
C185        C  0.22784622  0.50310602  0.98075871     0.85100
N186        N  0.21031610  0.48450081  0.98165615    -0.77400
N187        N  0.03883764  0.45926111  0.05905772    -0.25000
N188        N  0.05891799  0.46901614  0.07519613    -0.32800
C189        C  0.05720197  0.49631610  0.09675965     0.03400
C190        C  0.03491269  0.50399860  0.09452947     0.09400
C191        C  0.02367534  0.48019340  0.07013556    -0.03700
H192        H  0.07125844  0.50993105  0.10979123     0.10100
H193        H  0.00597081  0.47857246  0.05884818     0.11300
Cu194      Cu  0.08779090  0.44617069  0.05785556     0.44200
Cu195      Cu  0.03413191  0.41852846  0.01833488     0.42000
Cu196      Cu  0.08495923  0.38142324  0.95774511     0.43900
N197        N  0.11477363  0.42924000  0.00790452    -0.32400
N198        N  0.11426721  0.40634690  0.96866297    -0.26600
C199        C  0.13457615  0.40373719  0.93903682    -0.02700
C200        C  0.14813176  0.42602058  0.96162138     0.09500
C201        C  0.13503026  0.44162564  0.00481368     0.03300
H202        H  0.13894663  0.38734150  0.90297111     0.11000
H203        H  0.13955918  0.46134831  0.03019179     0.10000
N204        N  0.05286875  0.36244800  0.96301862    -0.33800
N205        N  0.03474022  0.37618555  0.98443771    -0.26000
C206        C  0.01722278  0.35791587  0.98460148    -0.01200
C207        C  0.02449209  0.33142230  0.96223288     0.07400
C208        C  0.04717630  0.33492812  0.94921134     0.05500
H209        H  0.00054062  0.36333819  0.00183098     0.10600
H210        H  0.05880702  0.31851443  0.93266654     0.09400
C211        C  0.82322421  0.61348718  0.94502890     0.82500
N212        N  0.82305177  0.59619105  0.89028601    -0.75800
C213        C  0.80577857  0.57762290  0.87971234     0.85000
N214        N  0.78869031  0.57622490  0.92465197    -0.75700
C215        C  0.78879552  0.59338351  0.97973105     0.85100
N216        N  0.80614696  0.61189488  0.98986080    -0.77400
N217        N  0.99710988  0.62787329  0.07318958    -0.25000
N218        N  0.97826987  0.61298812  0.07546146    -0.32800
C219        C  0.98289808  0.58538069  0.08917711     0.03400
C220        C  0.00575523  0.58277352  0.09611415     0.09400
C221        C  0.01442397  0.60998749  0.08538656    -0.03700
H222        H  0.97056517  0.56834189  0.09177527     0.10100
H223        H  0.03191861  0.61619527  0.08506946     0.11300
Cu224      Cu  0.94740497  0.63045869  0.05490790     0.44200
Cu225      Cu  0.99698309  0.67147722  0.05113581     0.42000
Cu226      Cu  0.94176600  0.70455265  0.00634134     0.43900
N227        N  0.91767801  0.64792182  0.02273040    -0.32400
N228        N  0.91494091  0.67489030  0.00337396    -0.26600
C229        C  0.89344656  0.67810794  0.98285420    -0.02700
C230        C  0.88253079  0.65184516  0.99024371     0.09500
C231        C  0.89840297  0.63339662  0.01545043     0.03300
H232        H  0.88641610  0.69784480  0.96340108     0.11000
H233        H  0.89626967  0.61077946  0.02650617     0.10000
N234        N  0.97209372  0.72732085  0.02038858    -0.33800
N235        N  0.99151346  0.71511606  0.03601549    -0.26000
C236        C  0.00723660  0.73562059  0.04344365    -0.01200
C237        C  0.99745667  0.76199302  0.03199894     0.07400
C238        C  0.97518719  0.75610871  0.01758074     0.05500
H239        H  0.02447327  0.73158215  0.05742123     0.10600
H240        H  0.96212395  0.77160659  0.00691755     0.09400
C241        C  0.31884461  0.46412347  0.68434921     0.82500
N242        N  0.30226514  0.46442705  0.73075436    -0.75800
C243        C  0.28482307  0.48308849  0.72491904     0.85000
N244        N  0.28417121  0.50183194  0.67297790    -0.75700
C245        C  0.30081559  0.50166038  0.62659625     0.85100
N246        N  0.31818466  0.48293211  0.63271401    -0.77400
N247        N  0.49234870  0.46363416  0.79599000    -0.25000
N248        N  0.47244413  0.47568831  0.80392380    -0.32800
C249        C  0.47490565  0.50307606  0.82381672     0.03400
C250        C  0.49746491  0.50860532  0.82887192     0.09400
C251        C  0.50819820  0.48326804  0.81116591    -0.03700
H252        H  0.46123632  0.51780610  0.83377713     0.10100
H253        H  0.52609488  0.47942661  0.80922819     0.11300
Cu254      Cu  0.44281368  0.45490706  0.78634378     0.44200
Cu255      Cu  0.49570252  0.42089342  0.76470718     0.42000
Cu256      Cu  0.44245316  0.38424961  0.71635333     0.43900
N257        N  0.41421131  0.43551233  0.75265484    -0.32400
N258        N  0.41344891  0.40973109  0.72485498    -0.26600
C259        C  0.39217355  0.40483222  0.70445882    -0.02700
C260        C  0.37933318  0.42874353  0.72105548     0.09500
C261        C  0.39383084  0.44764311  0.75121117     0.03300
H262        H  0.38661304  0.38567487  0.67863067     0.11000
H263        H  0.39004835  0.46910415  0.76899082     0.10000
N264        N  0.47415159  0.36440253  0.72032355    -0.33800
N265        N  0.49305910  0.37751074  0.73749082    -0.26000
C266        C  0.50990875  0.35812774  0.73695695    -0.01200
C267        C  0.50129467  0.33167318  0.71861022     0.07400
C268        C  0.47863479  0.33638063  0.70853488     0.05500
H269        H  0.52710711  0.36287369  0.75019355     0.10600
H270        H  0.46620519  0.32047533  0.69484832     0.09400
C271        C  0.70078549  0.60321301  0.14727521     0.82500
N272        N  0.71829604  0.60414041  0.10388332    -0.75800
C273        C  0.73736557  0.58897622  0.11624956     0.85000
N274        N  0.73884206  0.57263856  0.17241097    -0.75700
C275        C  0.72133341  0.57152883  0.21605772     0.85100
N276        N  0.70233009  0.58678744  0.20312686    -0.77400
N277        N  0.53293451  0.62498960  0.94261283    -0.25000
N278        N  0.55130631  0.60925039  0.94787381    -0.32800
C279        C  0.54769674  0.58308995  0.92173651     0.03400
C280        C  0.52600994  0.58223990  0.89875689     0.09400
C281        C  0.51693433  0.60903559  0.91272120    -0.03700
H282        H  0.55990598  0.56584969  0.92052998     0.10100
H283        H  0.50003381  0.61629700  0.90246008     0.11300
Cu284      Cu  0.58019093  0.62337664  0.99244196     0.44200
Cu285      Cu  0.53184044  0.66719248  0.97796040     0.42000
Cu286      Cu  0.58361680  0.69483913  0.06071023     0.43900
N287        N  0.60766603  0.63772362  0.04408326    -0.32400
N288        N  0.60962033  0.66373558  0.07033632    -0.26600
C289        C  0.62981739  0.66522989  0.10110892    -0.02700
C290        C  0.64069237  0.63888993  0.09326972     0.09500
C291        C  0.62612698  0.62215117  0.05700464     0.03300
H292        H  0.63609078  0.68395550  0.12717600     0.11000
H293        H  0.62868158  0.60011577  0.04118439     0.10000
N294        N  0.55432971  0.71969819  0.04120904    -0.33800
N295        N  0.53606395  0.70929197  0.01209144    -0.26000
C296        C  0.52064763  0.73036547  0.00663208    -0.01200
C297        C  0.52933679  0.75534430  0.03334609     0.07400
C298        C  0.55074681  0.74790926  0.05476287     0.05500
H299        H  0.50427744  0.72769194  0.98422428     0.10600
H300        H  0.56284862  0.76199603  0.07821205     0.09400
C301        C  0.70943184  0.10627684  0.68017642     0.82500
N302        N  0.71259781  0.08794542  0.62818046    -0.75800
C303        C  0.73079966  0.07032615  0.62663073     0.85000
N304        N  0.74568692  0.07076252  0.67779856    -0.75700
C305        C  0.74252442  0.08897808  0.72999634     0.85100
N306        N  0.72431878  0.10657482  0.73132420    -0.77400
N307        N  0.53241325  0.11851300  0.77169219    -0.25000
N308        N  0.55024939  0.10217767  0.76164260    -0.32800
C309        C  0.54553123  0.07485930  0.77844336     0.03400
C310        C  0.52361706  0.07384955  0.80009462     0.09400
C311        C  0.51570927  0.10183950  0.79543915    -0.03700
H312        H  0.55735651  0.05719813  0.77633069     0.10100
H313        H  0.49921116  0.10956611  0.80918852     0.11300
Cu314      Cu  0.58050575  0.11828714  0.72973316     0.44200
Cu315      Cu  0.53315518  0.16287038  0.75358036     0.42000
Cu316      Cu  0.58878261  0.19489016  0.71221264     0.43900
N317        N  0.61125050  0.13673314  0.71190792    -0.32400
N318        N  0.61502390  0.16467620  0.70620159    -0.26600
C319        C  0.63728457  0.16864344  0.69671764    -0.02700
C320        C  0.64757808  0.14181801  0.69650232     0.09500
C321        C  0.63062501  0.12227291  0.70627308     0.03300
H322        H  0.64530772  0.18934968  0.69058675     0.11000
H323        H  0.63222758  0.09912256  0.70967743     0.10000
N324        N  0.55851289  0.21811229  0.71893348    -0.33800
N325        N  0.53876800  0.20650641  0.73337790    -0.26000
C326        C  0.52304482  0.22736867  0.73367826    -0.01200
C327        C  0.53323955  0.25326051  0.71884275     0.07400
C328        C  0.55569453  0.24668639  0.70982122     0.05500
H329        H  0.50546074  0.22392712  0.74441399     0.10600
H330        H  0.56903722  0.26158591  0.69782702     0.09400
C331        C  0.32653415  0.98423457  0.16771815     0.82500
N332        N  0.32524267  0.00193181  0.22146738    -0.75800
C333        C  0.30704279  0.01908621  0.23059306     0.85000
N334        N  0.29007870  0.01869356  0.18531911    -0.75700
C335        C  0.29129336  0.00110042  0.13114882     0.85100
N336        N  0.30959535  0.98397122  0.12234076    -0.77400
N337        N  0.48564608  0.96102443  0.92619486    -0.25000
N338        N  0.47020889  0.97899107  0.94871141    -0.32800
C339        C  0.47400229  0.00543815  0.92415418     0.03400
C340        C  0.49274780  0.00412139  0.88406551     0.09400
C341        C  0.49981946  0.97571129  0.88635789    -0.03700
H342        H  0.46401441  0.02428368  0.93547919     0.10100
H343        H  0.51436954  0.96654181  0.86198592     0.11300
Cu344      Cu  0.44515541  0.96647677  0.01297046     0.44200
Cu345      Cu  0.48628567  0.91785248  0.95573109     0.42000
Cu346      Cu  0.44266426  0.89300450  0.07502914     0.43900
N347        N  0.41939694  0.95100513  0.07095304    -0.32400
N348        N  0.41766697  0.92438335  0.09377112    -0.26600
C349        C  0.39781359  0.92205816  0.12618846    -0.02700
C350        C  0.38694880  0.94852031  0.12315862     0.09500
C351        C  0.40111148  0.96616114  0.08796683     0.03300
H352        H  0.39157092  0.90252540  0.14882098     0.11000
H353        H  0.39808157  0.98829091  0.07385243     0.10000
N354        N  0.47043901  0.86798348  0.04334070    -0.33800
N355        N  0.48570166  0.87709798  0.00011066    -0.26000
C356        C  0.50112789  0.85624141  0.99075796    -0.01200
C357        C  0.49554809  0.83285945  0.02977574     0.07400
C358        C  0.47598469  0.84097418  0.06242649     0.05500
H359        H  0.51553059  0.85811029  0.95822310     0.10600
H360        H  0.46652057  0.82821339  0.09763408     0.09400
C361        C  0.32261225  0.60318997  0.43636704     0.82500
N362        N  0.32063551  0.58244458  0.48367289    -0.75800
C363        C  0.30419635  0.56231444  0.47932384     0.85000
N364        N  0.28967604  0.56291781  0.42732150    -0.75700
C365        C  0.29155279  0.58355714  0.37975467     0.85100
N366        N  0.30805041  0.60372768  0.38425669    -0.77400
N367        N  0.48211137  0.62754894  0.63652503    -0.25000
N368        N  0.46221479  0.61514596  0.63821870    -0.32800
C369        C  0.46447038  0.58754250  0.65682334     0.03400
C370        C  0.48690682  0.58234074  0.66798071     0.09400
C371        C  0.49769124  0.60805952  0.65441602    -0.03700
H372        H  0.45099430  0.57194702  0.65725322     0.10100
H373        H  0.51561060  0.61173415  0.65297644     0.11300
Cu374      Cu  0.43386973  0.63482451  0.60283303     0.44200
Cu375      Cu  0.48636171  0.66892422  0.59895135     0.42000
Cu376      Cu  0.43797655  0.69929431  0.50354224     0.43900
N377        N  0.40873499  0.64900139  0.54156055    -0.32400
N378        N  0.40957106  0.67208241  0.50317737    -0.26600
C379        C  0.39055282  0.67284657  0.46624957    -0.02700
C380        C  0.37754514  0.64907445  0.48313334     0.09500
C381        C  0.38963946  0.63461545  0.53056408     0.03300
H382        H  0.38676295  0.68896376  0.42909920     0.11000
H383        H  0.38523913  0.61445406  0.55406432     0.10000
N384        N  0.46977334  0.71900475  0.51366678    -0.33800
N385        N  0.48676504  0.70791671  0.54776418    -0.26000
C386        C  0.50448842  0.72579280  0.54387136    -0.01200
C387        C  0.49857088  0.74921619  0.50564052     0.07400
C388        C  0.47646315  0.74436315  0.48745362     0.05500
H389        H  0.52052305  0.72201727  0.56754062     0.10600
H390        H  0.46597517  0.75829139  0.45757177     0.09400
C391        C  0.70240198  0.48937771  0.45545269     0.82500
N392        N  0.72002043  0.48938384  0.49846217    -0.75800
C393        C  0.73865322  0.50528925  0.48524088     0.85000
N394        N  0.73956491  0.52141555  0.42868231    -0.75700
C395        C  0.72197527  0.52157953  0.38539649     0.85100
N396        N  0.70340657  0.50558839  0.39911781    -0.77400
N397        N  0.53005468  0.46234362  0.62236146    -0.25000
N398        N  0.54820268  0.47863531  0.62432012    -0.32800
C399        C  0.54248973  0.50544657  0.64266164     0.03400
C400        C  0.51967911  0.50608715  0.65301394     0.09400
C401        C  0.51215199  0.47852122  0.63941315    -0.03700
H402        H  0.55402623  0.52335983  0.64602826     0.10100
H403        H  0.49498485  0.47097186  0.64031618     0.11300
Cu404      Cu  0.57963111  0.46461227  0.59632942     0.44200
Cu405      Cu  0.53146598  0.41946412  0.59258836     0.42000
Cu406      Cu  0.58614927  0.39434119  0.52367078     0.43900
N407        N  0.60904889  0.45114188  0.55209429    -0.32400
N408        N  0.61190702  0.42567087  0.52376800    -0.26600
C409        C  0.63272032  0.42492836  0.49672086    -0.02700
C410        C  0.64315446  0.45116932  0.50916416     0.09500
C411        C  0.62764335  0.46710659  0.54421634     0.03300
H412        H  0.63959561  0.40689420  0.46934281     0.11000
H413        H  0.62949761  0.48905526  0.56146914     0.10000
N414        N  0.55712146  0.36848438  0.53417125    -0.33800
N415        N  0.53779921  0.37782172  0.55895120    -0.26000
C416        C  0.52291735  0.35603422  0.55960896    -0.01200
C417        C  0.53316108  0.33177342  0.53420853     0.07400
C418        C  0.55482820  0.34031174  0.51855397     0.05500
H419        H  0.50587694  0.35774286  0.57776570     0.10600
H420        H  0.56799945  0.32699452  0.49785640     0.09400
C421        C  0.32771472  0.10453636  0.46148072     0.82500
N422        N  0.32614597  0.08813827  0.40554392    -0.75800
C423        C  0.30790266  0.07116212  0.39533209     0.85000
N424        N  0.29123619  0.07045089  0.44152596    -0.75700
C425        C  0.29271220  0.08671072  0.49770966     0.85100
N426        N  0.31100951  0.10369068  0.50769445    -0.77400
N427        N  0.42044197  0.16486840  0.51375993    -0.25000
N428        N  0.42189686  0.14010780  0.54591805    -0.32800
C429        C  0.40242431  0.12580846  0.54107715     0.03400
C430        C  0.38777178  0.14209703  0.50415281     0.09400
C431        C  0.39962777  0.16679776  0.48714435    -0.03700
H432        H  0.39938180  0.10466370  0.56166905     0.10100
H433        H  0.39367278  0.18460874  0.45735955     0.11300
Cu434      Cu  0.45042512  0.12449001  0.59055824     0.44200
Cu435      Cu  0.44782452  0.19368822  0.50931953     0.42000
Cu436      Cu  0.50128281  0.16278253  0.57160927     0.43900
N437        N  0.48115432  0.10584612  0.60763636    -0.32400
N438        N  0.50034157  0.11955794  0.59911353    -0.26600
C439        C  0.51730430  0.10073339  0.60773665    -0.02700
C440        C  0.50811874  0.07415467  0.62273338     0.09500
C441        C  0.48523941  0.07811569  0.62195343     0.03300
H442        H  0.53489477  0.10579142  0.60146206     0.11000
H443        H  0.47246171  0.06180707  0.62819098     0.05200
N444        N  0.49692498  0.20572024  0.54428427    -0.33800
N445        N  0.47799467  0.21703143  0.52150786    -0.26000
C446        C  0.48139464  0.24538191  0.51041131    -0.01200
C447        C  0.50337131  0.25204081  0.52690474     0.07400
C448        C  0.51265510  0.22646800  0.54830389     0.05500
H449        H  0.46870190  0.26014981  0.49266196     0.10600
H450        H  0.52955798  0.22319306  0.56632985     0.09400
C451        C  0.71402065  0.96796578  0.43881996     0.82500
N452        N  0.71580152  0.98921788  0.48501800    -0.75800
C453        C  0.73275889  0.00863682  0.48163823     0.85000
N454        N  0.74802113  0.00686052  0.43148279    -0.75700
C455        C  0.74632378  0.98561515  0.38502012     0.85100
N456        N  0.72925166  0.96624704  0.38857830    -0.77400
N457        N  0.54508735  0.95115847  0.58307272    -0.25000
N458        N  0.56469274  0.96407296  0.58883262    -0.32800
C459        C  0.56160209  0.99144499  0.60834486     0.03400
C460        C  0.53889847  0.99595729  0.61565850     0.09400
C461        C  0.52880463  0.97008751  0.59899979    -0.03700
H462        H  0.57483627  0.00722248  0.61352645     0.10100
H463        H  0.51100297  0.96572786  0.59588638     0.11300
Cu464      Cu  0.59413491  0.94457109  0.56122975     0.44200
Cu465      Cu  0.54295188  0.90917433  0.54758053     0.42000
Cu466      Cu  0.59480725  0.87611818  0.47443714     0.43900
N467        N  0.62182032  0.92852119  0.51321944    -0.32400
N468        N  0.62279486  0.90402253  0.47962625    -0.26600
C469        C  0.64348515  0.90193031  0.45198664    -0.02700
C470        C  0.65565951  0.92629657  0.46980047     0.09500
C471        C  0.64139117  0.94248814  0.50823737     0.03300
H472        H  0.64910816  0.88431814  0.42086344     0.11000
H473        H  0.64477600  0.96336874  0.52998859     0.10000
N474        N  0.56345139  0.85514596  0.48459036    -0.33800
N475        N  0.54533087  0.86741593  0.51056182    -0.26000
C476        C  0.52850619  0.84816684  0.51221030    -0.01200
C477        C  0.53611740  0.82252625  0.48619954     0.07400
C478        C  0.55836114  0.82753154  0.46924790     0.05500
H479        H  0.51202427  0.85239555  0.53259996     0.10600
H480        H  0.57010076  0.81210309  0.44881703     0.09400
C481        C  0.69526018  0.94838655  0.44204442    -0.10900
C482        C  0.67789986  0.93541658  0.45070644    -0.12500
C483        C  0.51944963  0.04686835  0.62609507    -0.10900
C484        C  0.52818008  0.02345063  0.62420725    -0.12500
C485        C  0.36545216  0.13306334  0.48515938    -0.10900
C486        C  0.34769544  0.12143287  0.47336690    -0.12500
C487        C  0.51414724  0.28002678  0.52634121    -0.10900
C488        C  0.52322736  0.30338948  0.52840833    -0.12500
C489        C  0.68225478  0.47329140  0.47126750    -0.10900
C490        C  0.66484655  0.46154724  0.48694433    -0.12500
C491        C  0.51232289  0.77425565  0.49212056    -0.10900
C492        C  0.52378581  0.79565843  0.48603521    -0.12500
C493        C  0.50661639  0.53152381  0.66561068    -0.10900
C494        C  0.49722718  0.55441336  0.67075538    -0.12500
C495        C  0.34045255  0.62410185  0.44192685    -0.10900
C496        C  0.35681849  0.63843193  0.45520781    -0.12500
C497        C  0.30653368  0.05338218  0.33640817    -0.10900
C498        C  0.30613325  0.03801177  0.28766239    -0.12500
C499        C  0.34665906  0.96756427  0.15646753    -0.10900
C500        C  0.36461971  0.95652086  0.14436370    -0.12500
C501        C  0.50346309  0.02813729  0.85153665    -0.10900
C502        C  0.51228119  0.04903227  0.82703870    -0.12500
C503        C  0.73331714  0.04967811  0.57340867    -0.10900
C504        C  0.73400027  0.03138074  0.53050298    -0.12500
C505        C  0.68921322  0.12324998  0.68406740    -0.10900
C506        C  0.67092845  0.13435029  0.68892656    -0.12500
C507        C  0.51815249  0.78321192  0.03581893    -0.10900
C508        C  0.50782551  0.80582599  0.03468714    -0.12500
C509        C  0.72275356  0.53910137  0.32555305    -0.10900
C510        C  0.72261876  0.55382132  0.27552513    -0.12500
C511        C  0.66251574  0.62960128  0.11682102    -0.10900
C512        C  0.68020614  0.61853291  0.13233675    -0.12500
C513        C  0.52261170  0.28131122  0.71626420    -0.10900
C514        C  0.51309488  0.30440301  0.71617308    -0.12500
C515        C  0.50732427  0.53525806  0.85013378    -0.10900
C516        C  0.51520371  0.55743927  0.87065531    -0.12500
C517        C  0.30096660  0.52255537  0.57351958    -0.10900
C518        C  0.30213044  0.54049599  0.53003150    -0.12500
C519        C  0.33841393  0.44644397  0.69398047    -0.10900
C520        C  0.35641615  0.43541816  0.70454687    -0.12500
C521        C  0.77084613  0.59143014  0.02835568    -0.10900
C522        C  0.75580207  0.59003083  0.06907688    -0.12500
C523        C  0.84250952  0.63147274  0.95848095    -0.10900
C524        C  0.86003499  0.64340158  0.97165822    -0.12500
C525        C  0.02600444  0.53250109  0.10204323    -0.10900
C526        C  0.01770734  0.55613164  0.10233439    -0.12500
C527        C  0.26781148  0.48400303  0.77598388    -0.10900
C528        C  0.25434314  0.48440545  0.82106831    -0.12500
C529        C  0.18785516  0.44700587  0.93185383    -0.10900
C530        C  0.17028305  0.43460260  0.94075113    -0.12500
C531        C  0.00830801  0.78968675  0.03831135    -0.10900
C532        C  0.01820495  0.81225303  0.04521436    -0.12500
C533        C  0.25827203  0.00121345  0.04207976    -0.10900
C534        C  0.27339408  0.00104223  0.08245673    -0.12500
C535        C  0.18340212  0.97016245  0.97916385    -0.10900
C536        C  0.16554304  0.95948810  0.99377457    -0.12500
C537        C  0.00046975  0.28327008  0.96740469    -0.10900
C538        C  0.01159319  0.30500131  0.96221429    -0.12500
C539        C  0.00722565  0.04192266  0.15472572    -0.10900
C540        C  0.99712422  0.06435824  0.15739529    -0.12500
C541        C  0.77045711  0.08803766  0.83236981    -0.10900
C542        C  0.75785058  0.08865870  0.78533241    -0.12500
C543        C  0.84786093  0.14356284  0.97515356    -0.10900
C544        C  0.83185144  0.12902149  0.96018474    -0.12500
C545        C  0.77563666  0.98326007  0.28581052    -0.10900
C546        C  0.76231931  0.98402543  0.33124545    -0.12500
C547        C  0.79813210  0.04000813  0.03090052    -0.10900
C548        C  0.79947875  0.02166567  0.07328974    -0.12500
C549        C  0.84659689  0.95312917  0.18886712    -0.10900
C550        C  0.86528767  0.94327023  0.19455664    -0.12500
C551        C  0.02071154  0.03497741  0.34164986    -0.10900
C552        C  0.02833751  0.05747455  0.36179127    -0.12500
C553        C  0.27474456  0.08610534  0.54616241    -0.10900
C554        C  0.25925557  0.08583154  0.58532841    -0.12500
C555        C  0.22365870  0.05247221  0.78929056    -0.10900
C556        C  0.22376598  0.03744144  0.83861744    -0.12500
C557        C  0.16750405  0.13199504  0.62700163    -0.10900
C558        C  0.18455954  0.11974972  0.64402743    -0.12500
C559        C  0.01606973  0.80075787  0.22339067    -0.10900
C560        C  0.02501186  0.77729739  0.21844043    -0.12500
C561        C  0.26192386  0.58361923  0.28136191    -0.10900
C562        C  0.27580440  0.58407765  0.32527604    -0.12500
C563        C  0.23129668  0.54049347  0.08009019    -0.10900
C564        C  0.23061981  0.52334974  0.03469973    -0.12500
C565        C  0.19041541  0.61619031  0.19241852    -0.10900
C566        C  0.17216187  0.62757963  0.19395640    -0.12500
C567        C  0.00926175  0.30432451  0.54948510    -0.10900
C568        C  0.01949978  0.28152087  0.55076142    -0.12500
C569        C  0.00512416  0.52399912  0.33955389    -0.10900
C570        C  0.01303450  0.54444923  0.31071339    -0.12500
C571        C  0.75727519  0.50527326  0.53176502    -0.10900
C572        C  0.77265833  0.50511854  0.57143349    -0.12500
C573        C  0.80666368  0.54258977  0.77442423    -0.10900
C574        C  0.80606851  0.55866206  0.82220172    -0.12500
C575        C  0.86398350  0.45896282  0.62706581    -0.10900
C576        C  0.84648934  0.47110131  0.64080175    -0.12500
loop_ 
_geom_bond_atom_site_label_1 
_geom_bond_atom_site_label_2 
_geom_bond_distance 
_geom_bond_site_symmetry_2 
_ccdc_geom_bond_type 
C1            N2   1.362       .  A
C1            N6   1.362       .  A
C1          C576   1.454       .  S
N2            C3   1.362       .  A
C3            N4   1.361       .  A
C3          C573   1.452       .  S
N4            C5   1.361       .  A
C5            N6   1.362       .  A
C5          C572   1.452       .  S
N7           C11   1.351   1_655  A
N7            N8   1.321       .  A
N7          Cu15   2.099       .  S
N8            C9   1.343       .  A
N8          Cu14   2.053       .  S
C9           C10   1.376       .  A
C9           H12   1.082       .  S
C10         C569   1.443   1_655  S
C10          C11   1.388   1_655  A
C11          H13   1.082       .  S
Cu14         N17   2.054       .  S
Cu15         N25   2.101       .  S
Cu16         N18   2.139       .  S
Cu16         N24   2.141       .  S
N17          C21   1.342       .  A
N17          N18   1.324       .  A
N18          C19   1.358       .  A
C19          C20   1.396       .  A
C19          H22   1.082       .  S
C20         C575   1.454       .  S
C20          C21   1.374       .  A
C21          H23   1.082       .  S
N24          C28   1.357       .  A
N24          N25   1.328       .  A
N25          C26   1.350   1_655  A
C26          C27   1.383   1_455  A
C26          H29   1.082       .  S
C27         C567   1.465   1_655  S
C27          C28   1.393       .  A
C28          H30   1.082       .  S
C31          N32   1.357       .  A
C31          N36   1.359       .  A
C31         C565   1.443       .  S
N32          C33   1.357       .  A
C33          N34   1.360       .  A
C33         C563   1.443       .  S
N34          C35   1.361       .  A
C35          N36   1.361       .  A
C35         C561   1.443       .  S
N37          C41   1.350       .  A
N37          N38   1.321       .  A
N37         Cu45   2.097       .  S
N38          C39   1.343       .  A
N38         Cu44   2.052       .  S
C39          C40   1.376       .  A
C39          H42   1.082       .  S
C40         C570   1.443       .  S
C40          C41   1.387       .  A
C41          H43   1.082   1_455  S
Cu44         N47   2.052       .  S
Cu45         N55   2.099       .  S
Cu46         N48   2.112       .  S
Cu46         N54   2.114       .  S
N47          C51   1.341       .  A
N47          N48   1.323       .  A
N48          C49   1.354       .  A
C49          C50   1.390       .  A
C49          H52   1.082       .  S
C50         C566   1.444       .  S
C50          C51   1.373       .  A
C51          H53   1.082       .  S
N54          C58   1.352       .  A
N54          N55   1.327       .  A
N55          C56   1.349       .  A
C56          C57   1.383       .  A
C56          H59   1.082       .  S
C57         C560   1.456       .  S
C57          C58   1.387       .  A
C58          H60   1.082       .  S
C61          N62   1.361       .  A
C61          N66   1.361       .  A
C61         C558   1.450       .  S
N62          C63   1.362       .  A
C63          N64   1.361       .  A
C63         C555   1.448       .  S
N64          C65   1.360       .  A
C65          N66   1.361       .  A
C65         C554   1.447       .  S
N67          C71   1.351       .  A
N67          N68   1.321       .  A
N67         Cu75   2.101       .  S
N68          C69   1.343       .  A
N68         Cu74   2.051       .  S
C69          C70   1.376       .  A
C69          H72   1.082       .  S
C70         C552   1.443       .  S
C70          C71   1.388       .  A
C71          H73   1.082       .  S
Cu74         N77   2.051       .  S
Cu75         N85   2.103       .  S
Cu76         N78   2.133       .  S
Cu76         N84   2.135       .  S
N77          C81   1.342       .  A
N77          N78   1.324       .  A
N78          C79   1.357       .  A
C79          C80   1.394       .  A
C79          H82   1.082       .  S
C80         C557   1.451       .  S
C80          C81   1.373       .  A
C81          H83   1.082       .  S
N84          C88   1.357       .  A
N84          N85   1.328       .  A
N85          C86   1.350       .  A
C86          C87   1.383       .  A
C86          H89   1.082       .  S
C87         C568   1.465       .  S
C87          C88   1.393       .  A
C88          H90   1.082       .  S
C91          N92   1.359       .  A
C91          N96   1.360       .  A
C91         C549   1.443       .  S
N92          C93   1.359   1_565  A
C93          N94   1.358       .  A
C93         C548   1.440       .  S
N94          C95   1.358   1_545  A
C95          N96   1.360       .  A
C95         C545   1.442       .  S
N97         C101   1.352       .  A
N97          N98   1.322   1_455  A
N97        Cu105   2.106       .  S
N98          C99   1.342   1_565  A
N98        Cu104   2.047       .  S
C99         C100   1.374   1_655  A
C99         H102   1.082       .  S
C100        C551   1.442       .  S
C100        C101   1.389   1_545  A
C101        H103   1.082       .  S
Cu104       N107   2.048       .  S
Cu105       N115   2.108   1_455  S
Cu106       N108   2.109       .  S
Cu106       N114   2.111       .  S
N107        C111   1.341       .  A
N107        N108   1.322       .  A
N108        C109   1.353       .  A
C109        C110   1.390       .  A
C109        H112   1.082       .  S
C110        C550   1.443       .  S
C110        C111   1.374       .  A
C111        H113   1.082       .  S
N114        C118   1.351       .  A
N114        N115   1.328       .  A
N115        C116   1.351   1_655  A
C116        C117   1.384       .  A
C116        H119   1.082       .  S
C117        C559   1.456       .  S
C117        C118   1.385   1_455  A
C118        H120   1.082       .  S
C121        N122   1.356       .  A
C121        N126   1.358       .  A
C121        C544   1.439       .  S
N122        C123   1.355       .  A
C123        N124   1.359       .  A
C123        C547   1.440   1_556  S
N124        C125   1.361       .  A
C125        N126   1.360       .  A
C125        C541   1.439       .  S
N127        C131   1.344       .  A
N127        N128   1.321       .  A
N127       Cu135   2.076       .  S
N128        C129   1.345       .  A
N128       Cu134   2.058       .  S
C129        C130   1.379       .  A
C129        H132   1.082       .  S
C130        C540   1.435       .  S
C130        C131   1.381       .  A
C131        H133   1.082   1_655  S
Cu134       N137   2.058       .  S
Cu135       N145   2.077       .  S
Cu136       N138   2.104   1_556  S
Cu136       N144   2.105       .  S
N137        C141   1.341       .  A
N137        N138   1.324       .  A
N138        C139   1.352   1_554  A
C139        C140   1.387   1_556  A
C139        H142   1.082       .  S
C140        C543   1.440   1_554  S
C140        C141   1.374       .  A
C141        H143   1.082       .  S
N144        C148   1.352       .  A
N144        N145   1.325   1_556  A
N145        C146   1.345       .  A
C146        C147   1.379   1_554  A
C146        H149   1.082   1_655  S
C147        C537   1.449   1_655  S
C147        C148   1.388       .  A
C148        H150   1.082       .  S
C151        N152   1.359   1_565  A
C151        N156   1.360   1_556  A
C151        C535   1.445       .  S
N152        C153   1.359       .  A
C153        N154   1.362       .  A
C153        C556   1.448       .  S
N154        C155   1.362       .  A
C155        N156   1.360   1_546  A
C155        C533   1.448   1_556  S
N157        C161   1.346       .  A
N157        N158   1.321       .  A
N157       Cu165   2.074       .  S
N158        C159   1.343   1_565  A
N158       Cu164   2.059       .  S
C159        C160   1.377       .  A
C159        H162   1.082       .  S
C160        C539   1.435       .  S
C160        C161   1.382   1_545  A
C161        H163   1.082   1_455  S
Cu164       N167   2.060       .  S
Cu165       N175   2.075       .  S
Cu166       N168   2.109       .  S
Cu166       N174   2.109       .  S
N167        C171   1.342       .  A
N167        N168   1.324       .  A
N168        C169   1.353       .  A
C169        C170   1.389       .  A
C169        H172   1.082   1_554  S
C170        C536   1.445   1_554  S
C170        C171   1.375       .  A
C171        H173   1.082       .  S
N174        C178   1.351       .  A
N174        N175   1.326       .  A
N175        C176   1.346       .  A
C176        C177   1.377       .  A
C176        H179   1.082       .  S
C177        C532   1.446       .  S
C177        C178   1.386       .  A
C178        H180   1.082       .  S
C181        N182   1.359       .  A
C181        N186   1.358       .  A
C181        C529   1.442       .  S
N182        C183   1.361       .  A
C183        N184   1.361       .  A
C183        C528   1.442       .  S
N184        C185   1.359       .  A
C185        N186   1.357       .  A
C185        C564   1.443   1_556  S
N187        C191   1.345       .  A
N187        N188   1.321       .  A
N187       Cu195   2.080       .  S
N188        C189   1.343       .  A
N188       Cu194   2.051       .  S
C189        C190   1.377       .  A
C189        H192   1.082       .  S
C190        C525   1.434       .  S
C190        C191   1.383       .  A
C191        H193   1.082       .  S
Cu194       N197   2.051       .  S
Cu195       N205   2.081   1_554  S
Cu196       N198   2.108       .  S
Cu196       N204   2.110       .  S
N197        C201   1.340       .  A
N197        N198   1.323   1_554  A
N198        C199   1.354       .  A
C199        C200   1.390       .  A
C199        H202   1.082       .  S
C200        C530   1.442       .  S
C200        C201   1.373   1_556  A
C201        H203   1.082       .  S
N204        C208   1.352       .  A
N204        N205   1.326       .  A
N205        C206   1.346       .  A
C206        C207   1.379       .  A
C206        H209   1.082   1_556  S
C207        C538   1.449       .  S
C207        C208   1.387       .  A
C208        H210   1.082       .  S
C211        N212   1.361       .  A
C211        N216   1.361       .  A
C211        C523   1.447       .  S
N212        C213   1.360       .  A
C213        N214   1.362       .  A
C213        C574   1.451       .  S
N214        C215   1.362       .  A
C215        N216   1.361       .  A
C215        C521   1.451   1_556  S
N217        C221   1.348   1_655  A
N217        N218   1.320       .  A
N217       Cu225   2.075       .  S
N218        C219   1.341       .  A
N218       Cu224   2.053       .  S
C219        C220   1.375   1_655  A
C219        H222   1.082       .  S
C220        C526   1.434       .  S
C220        C221   1.383       .  A
C221        H223   1.082       .  S
Cu224       N227   2.054       .  S
Cu225       N235   2.076       .  S
Cu226       N228   2.113       .  S
Cu226       N234   2.114       .  S
N227        C231   1.341       .  A
N227        N228   1.323       .  A
N228        C229   1.355   1_554  A
C229        C230   1.391       .  A
C229        H232   1.082       .  S
C230        C524   1.447       .  S
C230        C231   1.374   1_556  A
C231        H233   1.082       .  S
N234        C238   1.352       .  A
N234        N235   1.327       .  A
N235        C236   1.345   1_655  A
C236        C237   1.376   1_455  A
C236        H239   1.082       .  S
C237        C531   1.446   1_655  S
C237        C238   1.386       .  A
C238        H240   1.082       .  S
C241        N242   1.358       .  A
C241        N246   1.358       .  A
C241        C519   1.440       .  S
N242        C243   1.359       .  A
C243        N244   1.361       .  A
C243        C527   1.442       .  S
N244        C245   1.360       .  A
C245        N246   1.358       .  A
C245        C517   1.443       .  S
N247        C251   1.349       .  A
N247        N248   1.321       .  A
N247       Cu255   2.091       .  S
N248        C249   1.341       .  A
N248       Cu254   2.044       .  S
C249        C250   1.373       .  A
C249        H252   1.082       .  S
C250        C515   1.436       .  S
C250        C251   1.385       .  A
C251        H253   1.082       .  S
Cu254       N257   2.044       .  S
Cu255       N265   2.094       .  S
Cu256       N258   2.102       .  S
Cu256       N264   2.104       .  S
N257        C261   1.339       .  A
N257        N258   1.322       .  A
N258        C259   1.353       .  A
C259        C260   1.389       .  A
C259        H262   1.082       .  S
C260        C520   1.440       .  S
C260        C261   1.373       .  A
C261        H263   1.082       .  S
N264        C268   1.349       .  A
N264        N265   1.327       .  A
N265        C266   1.349       .  A
C266        C267   1.382       .  A
C266        H269   1.082       .  S
C267        C514   1.450       .  S
C267        C268   1.384       .  A
C268        H270   1.082       .  S
C271        N272   1.360       .  A
C271        N276   1.361       .  A
C271        C512   1.450       .  S
N272        C273   1.360       .  A
C273        N274   1.364       .  A
C273        C522   1.451       .  S
N274        C275   1.363       .  A
C275        N276   1.362       .  A
C275        C510   1.453       .  S
N277        C281   1.349       .  A
N277        N278   1.321       .  A
N277       Cu285   2.085       .  S
N278        C279   1.341       .  A
N278       Cu284   2.049       .  S
C279        C280   1.374       .  A
C279        H282   1.082       .  S
C280        C516   1.436       .  S
C280        C281   1.385       .  A
C281        H283   1.082       .  S
Cu284       N287   2.051   1_556  S
Cu285       N295   2.087   1_556  S
Cu286       N288   2.128       .  S
Cu286       N294   2.130       .  S
N287        C291   1.343       .  A
N287        N288   1.323       .  A
N288        C289   1.356       .  A
C289        C290   1.393       .  A
C289        H292   1.082       .  S
C290        C511   1.450       .  S
C290        C291   1.375       .  A
C291        H293   1.082       .  S
N294        C298   1.355       .  A
N294        N295   1.328       .  A
N295        C296   1.347       .  A
C296        C297   1.379       .  A
C296        H299   1.082   1_554  S
C297        C507   1.457       .  S
C297        C298   1.391       .  A
C298        H300   1.082       .  S
C301        N302   1.359       .  A
C301        N306   1.358       .  A
C301        C505   1.442       .  S
N302        C303   1.359       .  A
C303        N304   1.359       .  A
C303        C503   1.443       .  S
N304        C305   1.359       .  A
C305        N306   1.359       .  A
C305        C542   1.439       .  S
N307        C311   1.349       .  A
N307        N308   1.321       .  A
N307       Cu315   2.094       .  S
N308        C309   1.344       .  A
N308       Cu314   2.056       .  S
C309        C310   1.377       .  A
C309        H312   1.082       .  S
C310        C502   1.443       .  S
C310        C311   1.386       .  A
C311        H313   1.082       .  S
Cu314       N317   2.055       .  S
Cu315       N325   2.095       .  S
Cu316       N318   2.105       .  S
Cu316       N324   2.106       .  S
N317        C321   1.341       .  A
N317        N318   1.323       .  A
N318        C319   1.353       .  A
C319        C320   1.389       .  A
C319        H322   1.082       .  S
C320        C506   1.442       .  S
C320        C321   1.373       .  A
C321        H323   1.082       .  S
N324        C328   1.351       .  A
N324        N325   1.327       .  A
N325        C326   1.348       .  A
C326        C327   1.381       .  A
C326        H329   1.082       .  S
C327        C513   1.450       .  S
C327        C328   1.385       .  A
C328        H330   1.082       .  S
C331        N332   1.358   1_565  A
C331        N336   1.361       .  A
C331        C499   1.445       .  S
N332        C333   1.358       .  A
C333        N334   1.361       .  A
C333        C498   1.444       .  S
N334        C335   1.361       .  A
C335        N336   1.361   1_545  A
C335        C534   1.448       .  S
N337        C341   1.349       .  A
N337        N338   1.321       .  A
N337       Cu345   2.093       .  S
N338        C339   1.344   1_565  A
N338       Cu344   2.058   1_556  S
C339        C340   1.378       .  A
C339        H342   1.082       .  S
C340        C501   1.443       .  S
C340        C341   1.386   1_545  A
C341        H343   1.082       .  S
Cu344       N347   2.057       .  S
Cu345       N355   2.095   1_556  S
Cu346       N348   2.117       .  S
Cu346       N354   2.119       .  S
N347        C351   1.341       .  A
N347        N348   1.324       .  A
N348        C349   1.355       .  A
C349        C350   1.391       .  A
C349        H352   1.082       .  S
C350        C500   1.446       .  S
C350        C351   1.373       .  A
C351        H353   1.082       .  S
N354        C358   1.354       .  A
N354        N355   1.327       .  A
N355        C356   1.348   1_554  A
C356        C357   1.381   1_556  A
C356        H359   1.082       .  S
C357        C508   1.457       .  S
C357        C358   1.389       .  A
C358        H360   1.082       .  S
C361        N362   1.360       .  A
C361        N366   1.361       .  A
C361        C495   1.445       .  S
N362        C363   1.358       .  A
C363        N364   1.357       .  A
C363        C518   1.443       .  S
N364        C365   1.359       .  A
C365        N366   1.362       .  A
C365        C562   1.443       .  S
N367        C371   1.346       .  A
N367        N368   1.320       .  A
N367       Cu375   2.082       .  S
N368        C369   1.343       .  A
N368       Cu374   2.049       .  S
C369        C370   1.378       .  A
C369        H372   1.082       .  S
C370        C494   1.437       .  S
C370        C371   1.385       .  A
C371        H373   1.082       .  S
Cu374       N377   2.049       .  S
Cu375       N385   2.085       .  S
Cu376       N378   2.114       .  S
Cu376       N384   2.116       .  S
N377        C381   1.339       .  A
N377        N378   1.323       .  A
N378        C379   1.356       .  A
C379        C380   1.392       .  A
C379        H382   1.082       .  S
C380        C496   1.445       .  S
C380        C381   1.372       .  A
C381        H383   1.082       .  S
N384        C388   1.352       .  A
N384        N385   1.328       .  A
N385        C386   1.347       .  A
C386        C387   1.379       .  A
C386        H389   1.082       .  S
C387        C491   1.450       .  S
C387        C388   1.387       .  A
C388        H390   1.082       .  S
C391        N392   1.361       .  A
C391        N396   1.362       .  A
C391        C489   1.450       .  S
N392        C393   1.361       .  A
C393        N394   1.363       .  A
C393        C571   1.452       .  S
N394        C395   1.363       .  A
C395        N396   1.362       .  A
C395        C509   1.453       .  S
N397        C401   1.349       .  A
N397        N398   1.321       .  A
N397       Cu405   2.081       .  S
N398        C399   1.342       .  A
N398       Cu404   2.061       .  S
C399        C400   1.376       .  A
C399        H402   1.082       .  S
C400        C493   1.437       .  S
C400        C401   1.384       .  A
C401        H403   1.082       .  S
Cu404       N407   2.062       .  S
Cu405       N415   2.082       .  S
Cu406       N408   2.117       .  S
Cu406       N414   2.118       .  S
N407        C411   1.344       .  A
N407        N408   1.323       .  A
N408        C409   1.354       .  A
C409        C410   1.391       .  A
C409        H412   1.082       .  S
C410        C490   1.451       .  S
C410        C411   1.377       .  A
C411        H413   1.082       .  S
N414        C418   1.353       .  A
N414        N415   1.327       .  A
N415        C416   1.347       .  A
C416        C417   1.379       .  A
C416        H419   1.082       .  S
C417        C488   1.451       .  S
C417        C418   1.388       .  A
C418        H420   1.082       .  S
C421        N422   1.360       .  A
C421        N426   1.361       .  A
C421        C486   1.447       .  S
N422        C423   1.359       .  A
C423        N424   1.359       .  A
C423        C497   1.444       .  S
N424        C425   1.360       .  A
C425        N426   1.361       .  A
C425        C553   1.447       .  S
N427        C431   1.355       .  A
N427        N428   1.323       .  A
N427       Cu435   2.114       .  S
N428        C429   1.341       .  A
N428       Cu434   2.056       .  S
C429        C430   1.374       .  A
C429        H432   1.082       .  S
C430        C485   1.447       .  S
C430        C431   1.391       .  A
C431        H433   1.082       .  S
Cu434       N437   2.055       .  S
Cu435       N445   2.115       .  S
Cu436       N438   2.085       .  S
Cu436       N444   2.086       .  S
N437        C441   1.343       .  A
N437        N438   1.321       .  A
N438        C439   1.348       .  A
C439        C440   1.385       .  A
C439        H442   1.082       .  S
C440        C483   1.438       .  S
C440        C441   1.376       .  A
C441        H443   1.082       .  S
N444        C448   1.348       .  A
N444        N445   1.327       .  A
N445        C446   1.352       .  A
C446        C447   1.387       .  A
C446        H449   1.082       .  S
C447        C487   1.451       .  S
C447        C448   1.380       .  A
C448        H450   1.082       .  S
C451        N452   1.358       .  A
C451        N456   1.359       .  A
C451        C481   1.444       .  S
N452        C453   1.357   1_565  A
C453        N454   1.359       .  A
C453        C504   1.443       .  S
N454        C455   1.361   1_545  A
C455        N456   1.361       .  A
C455        C546   1.442       .  S
N457        C461   1.347       .  A
N457        N458   1.319       .  A
N457       Cu465   2.080       .  S
N458        C459   1.343       .  A
N458       Cu464   2.050       .  S
C459        C460   1.377       .  A
C459        H462   1.082   1_565  S
C460        C484   1.438   1_565  S
C460        C461   1.385       .  A
C461        H463   1.082       .  S
Cu464       N467   2.050       .  S
Cu465       N475   2.081       .  S
Cu466       N468   2.116       .  S
Cu466       N474   2.119       .  S
N467        C471   1.339       .  A
N467        N468   1.323       .  A
N468        C469   1.356       .  A
C469        C470   1.392       .  A
C469        H472   1.082       .  S
C470        C482   1.444       .  S
C470        C471   1.372       .  A
C471        H473   1.082       .  S
N474        C478   1.354       .  A
N474        N475   1.327       .  A
N475        C476   1.345       .  A
C476        C477   1.377       .  A
C476        H479   1.082       .  S
C477        C492   1.449       .  S
C477        C478   1.389       .  A
C478        H480   1.082       .  S
C481        C482   1.211       .  T
C483        C484   1.206       .  T
C485        C486   1.212       .  T
C487        C488   1.214       .  T
C489        C490   1.214       .  T
C491        C492   1.213       .  T
C493        C494   1.206       .  T
C495        C496   1.211       .  T
C497        C498   1.211       .  T
C499        C500   1.211       .  T
C501        C502   1.209       .  T
C503        C504   1.210       .  T
C505        C506   1.209       .  T
C507        C508   1.218       .  T
C509        C510   1.216       .  T
C511        C512   1.214       .  T
C513        C514   1.213       .  T
C515        C516   1.205       .  T
C517        C518   1.210       .  T
C519        C520   1.208       .  T
C521        C522   1.215       .  T
C523        C524   1.212       .  T
C525        C526   1.204       .  T
C527        C528   1.210       .  T
C529        C530   1.209       .  T
C531        C532   1.211       .  T
C533        C534   1.213       .  T
C535        C536   1.211       .  T
C537        C538   1.213       .  T
C539        C540   1.205   1_455  T
C541        C542   1.208       .  T
C543        C544   1.208       .  T
C545        C546   1.209       .  T
C547        C548   1.208       .  T
C549        C550   1.210       .  T
C551        C552   1.209       .  T
C553        C554   1.213       .  T
C555        C556   1.213       .  T
C557        C558   1.215       .  T
C559        C560   1.217       .  T
C561        C562   1.210       .  T
C563        C564   1.210       .  T
C565        C566   1.210       .  T
C567        C568   1.223       .  T
C569        C570   1.209       .  T
C571        C572   1.215       .  T
C573        C574   1.215       .  T
C575        C576   1.217       .  T
