geometry optimzed in LAMMPS
_audit_creation_date              2020-11-30 
_audit_creation_method            'lammps2cif' 
_symmetry_space_group_name_H-M    'P1' 
_symmetry_Int_Tables_number       1 
_symmetry_cell_setting            triclinic 
loop_ 
_symmetry_equiv_pos_as_xyz 
  x,y,z 
_cell_length_a                    82.70469242 
_cell_length_b                    82.66683530386322 
_cell_length_c                    82.40821792376109 
_cell_angle_alpha                 90.37313627650678 
_cell_angle_beta                  90.14256477953704 
_cell_angle_gamma                 90.4010897310351 
loop_ 
_atom_site_label 
_atom_site_type_symbol 
_atom_site_fract_x 
_atom_site_fract_y 
_atom_site_fract_z 
_atom_site_charge 
N1          N  0.98080473  0.86787307  0.68704605    -0.25900
N2          N  0.97305512  0.88178492  0.68622015    -0.33700
C3          C  0.95711046  0.87881385  0.68496445     0.02500
C4          C  0.95462683  0.86223457  0.68504279     0.08500
C5          C  0.96992769  0.85567372  0.68650339    -0.04600
H6          H  0.94797756  0.88810174  0.68444611     0.09200
H7          H  0.97295465  0.84297425  0.68697690     0.10400
Cu8        Cu  0.98415750  0.90436358  0.68716620     0.44200
Cu9        Cu  0.00584539  0.86618021  0.68824397     0.42000
Cu10       Cu  0.02749750  0.90471589  0.68678955     0.43900
N11         N  0.99777862  0.92553078  0.68786031    -0.33200
N12         N  0.01374678  0.92570602  0.68759860    -0.27500
C13         C  0.01895251  0.94117070  0.68740929    -0.03600
C14         C  0.00560992  0.95127422  0.68763254     0.08600
C15         C  0.99238984  0.94084988  0.68790907     0.02400
H16         H  0.03154283  0.94477018  0.68697587     0.10100
H17         H  0.97974770  0.94407553  0.68752190     0.09100
N18         N  0.03864277  0.88221407  0.68579688    -0.34700
N19         N  0.03087556  0.86821582  0.68685180    -0.26900
C20         C  0.04167772  0.85611616  0.68601546    -0.02100
C21         C  0.05694976  0.86280072  0.68406680     0.06500
C22         C  0.05453840  0.87936959  0.68404337     0.04600
H23         H  0.03859762  0.84338429  0.68643884     0.09700
H24         H  0.06369733  0.88871667  0.68305396     0.08500
N25         N  0.97778504  0.15552475  0.67137522    -0.25900
N26         N  0.97016309  0.14176975  0.67447083    -0.33700
C27         C  0.95419987  0.14456515  0.67526206     0.02500
C28         C  0.95154126  0.16082285  0.67238268     0.08500
C29         C  0.96680774  0.16740571  0.66998045    -0.04600
H30         H  0.94514573  0.13531354  0.67738073     0.09200
H31         H  0.96978468  0.17991592  0.66754983     0.10400
Cu32       Cu  0.98139910  0.11948404  0.67683736     0.44200
Cu33       Cu  0.00278625  0.15756123  0.66930826     0.42000
Cu34       Cu  0.02487819  0.12049669  0.67585888     0.43900
N35         N  0.99548546  0.09879824  0.67817734    -0.33200
N36         N  0.01145313  0.09926494  0.67800015    -0.27500
C37         C  0.01711187  0.08408370  0.67885626    -0.03600
C38         C  0.00409470  0.07343193  0.67963979     0.08600
C39         C  0.99055696  0.08326652  0.67909830     0.02400
H40         H  0.02980678  0.08108632  0.67847464     0.10100
H41         H  0.97802634  0.07944486  0.67942712     0.09100
N42         N  0.03593984  0.14278488  0.67187247    -0.34700
N43         N  0.02790479  0.15624908  0.66904677    -0.26900
C44         C  0.03855931  0.16836787  0.66654989    -0.02100
C45         C  0.05409165  0.16228052  0.66793848     0.06500
C46         C  0.05189975  0.14601137  0.67137925     0.04600
H47         H  0.03519292  0.18076844  0.66428080     0.09700
H48         H  0.06122961  0.13709387  0.67321006     0.08500
N49         N  0.21058482  0.42978803  0.49212115    -0.25900
N50         N  0.21037317  0.43009232  0.47610186    -0.33700
C51         C  0.21135341  0.44555257  0.47118870     0.02500
C52         C  0.21226208  0.45554465  0.48477983     0.08500
C53         C  0.21171423  0.44503564  0.49783961    -0.04600
H54         H  0.21123942  0.44921744  0.45861342     0.09200
H55         H  0.21151008  0.44817236  0.51059198     0.10400
Cu56       Cu  0.20785701  0.40941318  0.46182927     0.44200
Cu57       Cu  0.20835802  0.40863882  0.50538541     0.42000
Cu58       Cu  0.20096829  0.37134642  0.48313764     0.43900
N59         N  0.20414592  0.38722895  0.45035397    -0.33200
N60         N  0.20129120  0.37349956  0.45802463    -0.27500
C61         C  0.19930517  0.36155405  0.44700333    -0.03600
C62         C  0.20110473  0.36803796  0.43164862     0.08600
C63         C  0.20419251  0.38434140  0.43428055     0.02400
H64         H  0.19718198  0.34900306  0.45000992     0.10100
H65         H  0.20626360  0.39348585  0.42517102     0.09100
N66         N  0.20196668  0.37271279  0.50831891    -0.34700
N67         N  0.20485552  0.38633806  0.51632162    -0.26900
C68         C  0.20445726  0.38339678  0.53232952    -0.02100
C69         C  0.20118608  0.36709576  0.53463508     0.06500
C70         C  0.19960754  0.36072832  0.51907886     0.04600
H71         H  0.20584454  0.39265259  0.54156666     0.09700
H72         H  0.19684317  0.34832218  0.51579663     0.08500
N73         N  0.20302492  0.65844189  0.45255414    -0.25900
N74         N  0.20396424  0.64395398  0.44573738    -0.33700
C75         C  0.20305760  0.64552121  0.42953198     0.02500
C76         C  0.20163352  0.66179192  0.42589741     0.08500
C77         C  0.20166519  0.66962378  0.44082209    -0.04600
H78         H  0.20320566  0.63549931  0.42102564     0.09200
H79         H  0.20007894  0.68242448  0.44304571     0.10400
Cu80       Cu  0.20593982  0.62252553  0.45860855     0.44200
Cu81       Cu  0.20239537  0.66216091  0.47753458     0.42000
Cu82       Cu  0.20597574  0.62555936  0.50192709     0.43900
N83         N  0.20794385  0.60262634  0.47372081    -0.33200
N84         N  0.20788530  0.60369194  0.48971657    -0.27500
C85         C  0.20909544  0.58875016  0.49598744    -0.03600
C86         C  0.21013350  0.57771783  0.48329463     0.08600
C87         C  0.20928358  0.58700066  0.46936052     0.02400
H88         H  0.20932421  0.58614654  0.50883434     0.10100
H89         H  0.20928232  0.58274022  0.45692646     0.09100
N90         N  0.20278545  0.64856473  0.51143031    -0.34700
N91         N  0.20142156  0.66188357  0.50275396    -0.26900
C92         C  0.19930096  0.67454123  0.51288901    -0.02100
C93         C  0.19931002  0.66889188  0.52871744     0.06500
C94         C  0.20156507  0.65236327  0.52723116     0.04600
H95         H  0.19769327  0.68687107  0.50893602     0.09700
H96         H  0.20251529  0.64367799  0.53694103     0.08500
N97         N  0.30784343  0.34658760  0.77406616    -0.02000
C98         C  0.31651681  0.35941887  0.76845306     0.00600
C99         C  0.32987516  0.35417012  0.75994326    -0.22300
C100        C  0.32959687  0.33758508  0.76043073    -0.22500
C101        C  0.31599489  0.33319343  0.76910629     0.00400
H102        H  0.33924558  0.36164036  0.75463927     0.14200
H103        H  0.33858868  0.32956356  0.75537096     0.14300
N104        N  0.19392515  0.35067175  0.80697674    -0.02000
C105        C  0.18436849  0.35546154  0.81951489     0.00600
C106        C  0.16958061  0.36064453  0.81381952    -0.22300
C107        C  0.16989011  0.35895409  0.79728953    -0.22500
C108        C  0.18489034  0.35282173  0.79329050     0.00400
H109        H  0.15934668  0.36447652  0.82101038     0.14200
H110        H  0.16003460  0.36153321  0.78905825     0.14300
N111        N  0.32589287  0.20316835  0.66485648    -0.02000
C112        C  0.33805731  0.19888773  0.65470007     0.00600
C113        C  0.33236483  0.19693991  0.63906087    -0.22300
C114        C  0.31612696  0.20005774  0.63951447    -0.22500
C115        C  0.31232165  0.20380227  0.65545911     0.00400
H116        H  0.33939532  0.19409685  0.62836810     0.14200
H117        H  0.30793933  0.19959424  0.62925380     0.14300
N118        N  0.31199448  0.20124931  0.78485140    -0.02000
C119        C  0.31106825  0.18833969  0.79491560     0.00600
C120        C  0.30504158  0.19304681  0.80982621    -0.22300
C121        C  0.30219854  0.20939675  0.80896678    -0.22500
C122        C  0.30665950  0.21418272  0.79355962     0.00400
H123        H  0.30304372  0.18539993  0.82025177     0.14200
H124        H  0.29772745  0.21702788  0.81866068     0.14300
N125        N  0.18353786  0.33187229  0.66061975    -0.02000
C126        C  0.17932403  0.34085009  0.64750023     0.00600
C127        C  0.17769538  0.35689734  0.65180448    -0.22300
C128        C  0.18104294  0.35797172  0.66802158    -0.22500
C129        C  0.18473403  0.34253204  0.67331861     0.00400
H130        H  0.17520686  0.36691835  0.64380656     0.14200
H131        H  0.18101808  0.36901385  0.67514773     0.14300
N132        N  0.17883791  0.21065875  0.66006562    -0.02000
C133        C  0.16657525  0.20048110  0.65549107     0.00600
C134        C  0.17247364  0.18552418  0.65114059    -0.22300
C135        C  0.18883820  0.18627026  0.65313008    -0.22500
C136        C  0.19261437  0.20169228  0.65872438     0.00400
H137        H  0.16551084  0.17499452  0.64742037     0.14200
H138        H  0.19713508  0.17645076  0.65085143     0.14300
N139        N  0.88040750  0.71096567  0.01196798    -0.25900
N140        N  0.86624939  0.71184611  0.00455946    -0.33700
C141        C  0.85444741  0.71184679  0.01577600     0.02500
C142        C  0.86144606  0.71074484  0.03103318     0.08500
C143        C  0.87796488  0.71027434  0.02809689    -0.04600
H144        H  0.84167130  0.71227416  0.01298111     0.09200
H145        H  0.88756951  0.70966194  0.03699454     0.10400
Cu146      Cu  0.86355756  0.71221516  0.97947242     0.44200
Cu147      Cu  0.90239824  0.71043548  0.99971361     0.42000
Cu148      Cu  0.90019499  0.70765595  0.95572299     0.43900
N149        N  0.86376544  0.71112340  0.95425588    -0.33200
N150        N  0.87705701  0.70930569  0.94558203    -0.27500
C151        C  0.87301605  0.70896693  0.92974410    -0.03600
C152        C  0.85634791  0.71068837  0.92827397     0.08600
C153        C  0.85095676  0.71197313  0.94418244     0.02400
H154        H  0.88167729  0.70777221  0.92000980     0.10100
H155        H  0.83862311  0.71315766  0.94829115     0.09100
N156        N  0.92189251  0.70767708  0.96881628    -0.34700
N157        N  0.92263403  0.70898743  0.98479280    -0.26900
C158        C  0.93824365  0.70923673  0.98945241    -0.02100
C159        C  0.94798340  0.70791086  0.97578016     0.06500
C160        C  0.93705603  0.70697715  0.96292445     0.04600
H161        H  0.94206341  0.71068067  0.00192309     0.09700
H162        H  0.93986388  0.70592052  0.95015587     0.08500
N163        N  0.09630089  0.70737378  0.96286347    -0.25900
N164        N  0.09614415  0.70866463  0.97884550    -0.33700
C165        C  0.08074796  0.70981766  0.98392638     0.02500
C166        C  0.07061180  0.70904789  0.97051652     0.08500
C167        C  0.08094807  0.70751385  0.95734073    -0.04600
H168        H  0.07717777  0.71072070  0.99651913     0.09200
H169        H  0.07760281  0.70667922  0.94466465     0.10400
Cu170      Cu  0.11695663  0.70786209  0.99293196     0.44200
Cu171      Cu  0.11771334  0.70534209  0.94976111     0.42000
Cu172      Cu  0.15557994  0.70147544  0.97276212     0.43900
N173        N  0.13882026  0.70545158  0.00507966    -0.33200
N174        N  0.15287062  0.70283405  0.99793532    -0.27500
C175        C  0.16434368  0.70129856  0.00947105    -0.03600
C176        C  0.15719374  0.70321312  0.02459102     0.08600
C177        C  0.14098272  0.70574094  0.02124667     0.02400
H178        H  0.17696256  0.69897429  0.00702280     0.10100
H179        H  0.13129234  0.70717031  0.02991285     0.09100
N180        N  0.15420721  0.70144715  0.94744087    -0.34700
N181        N  0.14050943  0.70303451  0.93930889    -0.26900
C182        C  0.14369496  0.70283582  0.92333151    -0.02100
C183        C  0.16020964  0.70085054  0.92108977     0.06500
C184        C  0.16645901  0.70012764  0.93674910     0.04600
H185        H  0.13453126  0.70439407  0.91412436     0.09700
H186        H  0.17899492  0.69867285  0.94017160     0.08500
N187        N  0.85677611  0.32994794  0.95504345    -0.25900
N188        N  0.87070599  0.33253040  0.94763089    -0.33700
C189        C  0.86804562  0.33340863  0.93155312     0.02500
C190        C  0.85164701  0.33121986  0.92867107     0.08500
C191        C  0.84491802  0.32896235  0.94387085    -0.04600
H192        H  0.87747569  0.33491901  0.92261016     0.09200
H193        H  0.83232147  0.32673706  0.94663726     0.10400
Cu194      Cu  0.89286779  0.33378382  0.95955088     0.44200
Cu195      Cu  0.85442382  0.32795479  0.98000435     0.42000
Cu196      Cu  0.89164264  0.33111604  0.00322808     0.43900
N197        N  0.91343684  0.33370760  0.97410384    -0.33200
N198        N  0.91301683  0.33286163  0.99009015    -0.27500
C199        C  0.92826093  0.33302308  0.99584464    -0.03600
C200        C  0.93893106  0.33401097  0.98286197     0.08600
C201        C  0.92894094  0.33433262  0.96925538     0.02400
H202        H  0.93127331  0.33251750  0.00860276     0.10100
H203        H  0.93247864  0.33467290  0.95666118     0.09100
N204        N  0.86882762  0.32891340  0.01359385    -0.34700
N205        N  0.85526134  0.32768327  0.00516468    -0.26900
C206        C  0.84271264  0.32666777  0.01549022    -0.02100
C207        C  0.84862043  0.32724437  0.03127688     0.06500
C208        C  0.86527011  0.32868385  0.02949531     0.04600
H209        H  0.83021924  0.32597883  0.01166024     0.09700
H210        H  0.87424262  0.32944730  0.03904048     0.08500
N211        N  0.08718755  0.34058962  0.99264788    -0.25900
N212        N  0.08677765  0.33901180  0.97668563    -0.33700
C213        C  0.07125327  0.33767403  0.97188137     0.02500
C214        C  0.06138398  0.33856302  0.98546564     0.08500
C215        C  0.07198182  0.34038639  0.99841685    -0.04600
H216        H  0.06743368  0.33629565  0.95938182     0.09200
H217        H  0.06895708  0.34114862  0.01115609     0.10400
Cu218      Cu  0.10750906  0.33886280  0.96230517     0.44200
Cu219      Cu  0.10844893  0.34260871  0.00586383     0.42000
Cu220      Cu  0.14615862  0.34233311  0.98363702     0.43900
N221        N  0.12994949  0.33942033  0.95077429    -0.33200
N222        N  0.14392259  0.34075072  0.95852483    -0.27500
C223        C  0.15597393  0.34112601  0.94758496    -0.03600
C224        C  0.14936174  0.33988382  0.93213902     0.08600
C225        C  0.13278768  0.33887556  0.93469641     0.02400
H226        H  0.16865008  0.34222109  0.95069409     0.10100
H227        H  0.12338176  0.33825907  0.92557524     0.09100
N228        N  0.14483312  0.34390717  0.00879895    -0.34700
N229        N  0.13100181  0.34408545  0.01678208    -0.26900
C230        C  0.13406486  0.34464671  0.03278573    -0.02100
C231        C  0.15067412  0.34489396  0.03512648     0.06500
C232        C  0.15709855  0.34433591  0.01957859     0.04600
H233        H  0.12478573  0.34414568  0.04198641     0.09700
H234        H  0.16974978  0.34399706  0.01630831     0.08500
N235        N  0.70491866  0.98644676  0.83613288    -0.25900
N236        N  0.70573696  0.97842353  0.84995255    -0.33700
C237        C  0.70454823  0.96246030  0.84670029     0.02500
C238        C  0.70313061  0.96026493  0.83003888     0.08500
C239        C  0.70342972  0.97578552  0.82375671    -0.04600
H240        H  0.70492120  0.95309460  0.85579948     0.09200
H241        H  0.70232802  0.97912887  0.81113505     0.10400
Cu242      Cu  0.70881540  0.98951238  0.87271809     0.44200
Cu243      Cu  0.70543307  0.01161436  0.83471640     0.42000
Cu244      Cu  0.71203961  0.03329521  0.87266048     0.43900
N245        N  0.71178394  0.00344810  0.89388107    -0.33200
N246        N  0.71279220  0.01942446  0.89380600    -0.27500
C247        C  0.71393651  0.02483678  0.90923336    -0.03600
C248        C  0.71366108  0.01168352  0.91965582     0.08600
C249        C  0.71240309  0.99831501  0.90938675     0.02400
H250        H  0.71496827  0.03747529  0.91256357     0.10100
H251        H  0.71155809  0.98576728  0.91295378     0.09100
N252        N  0.70939913  0.04466448  0.85019958    -0.34700
N253        N  0.70647498  0.03676347  0.83648011    -0.26900
C254        C  0.70441232  0.04753817  0.82446148    -0.02100
C255        C  0.70633085  0.06300561  0.83081428     0.06500
C256        C  0.70949276  0.06067064  0.84718693     0.04600
H257        H  0.70177419  0.04433371  0.81197929     0.09700
H258        H  0.71121954  0.06993889  0.85636637     0.08500
N259        N  0.70192652  0.99347573  0.12790737    -0.25900
N260        N  0.70265363  0.98485728  0.11434615    -0.33700
C261        C  0.70099005  0.96909924  0.11799695     0.02500
C262        C  0.69911572  0.96762722  0.13465069     0.08500
C263        C  0.69993319  0.98337152  0.14053567    -0.04600
H264        H  0.70153329  0.95939793  0.10915130     0.09200
H265        H  0.69904232  0.98722858  0.15306985     0.10400
Cu266      Cu  0.70620698  0.99457178  0.09127797     0.44200
Cu267      Cu  0.70355547  0.01862168  0.12859521     0.42000
Cu268      Cu  0.71106753  0.03763527  0.08940884     0.43900
N269        N  0.70967528  0.00688721  0.06949170    -0.33200
N270        N  0.71141734  0.02275757  0.06879471    -0.27500
C271        C  0.71314522  0.02709837  0.05315452    -0.03600
C272        C  0.71246391  0.01330708  0.04335623     0.08600
C273        C  0.71030165  0.00071635  0.05432493     0.02400
H274        H  0.71454944  0.03948165  0.04922967     0.10100
H275        H  0.70938458  0.98793613  0.05165560     0.09100
N276        N  0.70943345  0.05026090  0.11140491    -0.34700
N277        N  0.70617758  0.04348666  0.12554343    -0.26900
C278        C  0.70535260  0.05513593  0.13704143    -0.02100
C279        C  0.70851881  0.06993074  0.12986030     0.06500
C280        C  0.71100529  0.06633711  0.11360673     0.04600
H281        H  0.70287848  0.05296515  0.14972994     0.09700
H282        H  0.71344812  0.07483922  0.10397973     0.08500
N283        N  0.80725327  0.37170872  0.50545994    -0.25900
N284        N  0.80612079  0.38565732  0.51330257    -0.33700
C285        C  0.80661046  0.38293696  0.52936397     0.02500
C286        C  0.80804722  0.36644547  0.53185903     0.08500
C287        C  0.80841634  0.35972839  0.51638221    -0.04600
H288        H  0.80593443  0.39232360  0.53854051     0.09200
H289        H  0.80991344  0.34711612  0.51321416     0.10400
Cu290      Cu  0.80417241  0.40787727  0.50202187     0.44200
Cu291      Cu  0.80791009  0.36961927  0.48021417     0.42000
Cu292      Cu  0.80558402  0.40752923  0.45837668     0.43900
N293        N  0.80210755  0.42852852  0.48811059    -0.33200
N294        N  0.80254941  0.42845947  0.47211196    -0.27500
C295        C  0.80110812  0.44373585  0.46682243    -0.03600
C296        C  0.79971476  0.45408175  0.48014963     0.08600
C297        C  0.80039035  0.44380601  0.49344754     0.02400
H298        H  0.80133461  0.44697102  0.45414147     0.10100
H299        H  0.79984393  0.44691096  0.50616167     0.09100
N300        N  0.80867540  0.38516005  0.44716570    -0.34700
N301        N  0.80924389  0.37125246  0.45497614    -0.26900
C302        C  0.81082602  0.35915728  0.44404151    -0.02100
C303        C  0.81145395  0.36578102  0.42860374     0.06500
C304        C  0.81000236  0.38230614  0.43114376     0.04600
H305        H  0.81153559  0.34647869  0.44711480     0.09700
H306        H  0.80946635  0.39161286  0.42200035     0.08500
N307        N  0.81210212  0.65929403  0.45738029    -0.25900
N308        N  0.81448375  0.64526943  0.45002759    -0.33700
C309        C  0.81732393  0.64782271  0.43422264     0.02500
C310        C  0.81658435  0.66427599  0.43132371     0.08500
C311        C  0.81327719  0.67119742  0.44634651    -0.04600
H312        H  0.81904507  0.63828587  0.42535538     0.09200
H313        H  0.81170902  0.68389578  0.44909458     0.10400
Cu314      Cu  0.81199882  0.62310067  0.46116636     0.44200
Cu315      Cu  0.80684360  0.66115252  0.48199747     0.42000
Cu316      Cu  0.79872487  0.62290035  0.50269147     0.43900
N317        N  0.80601968  0.60221327  0.47343104    -0.33200
N318        N  0.80074438  0.60202940  0.48854299    -0.27500
C319        C  0.79767060  0.58660773  0.49275796    -0.03600
C320        C  0.80128693  0.57659011  0.47967817     0.08600
C321        C  0.80647643  0.58700099  0.46762522     0.02400
H322        H  0.79343841  0.58294843  0.50459786     0.10100
H323        H  0.81008998  0.58388952  0.45540646     0.09100
N324        N  0.80004467  0.64534295  0.51433609    -0.34700
N325        N  0.80292314  0.65916763  0.50684529    -0.26900
C326        C  0.80403868  0.67112561  0.51797043    -0.02100
C327        C  0.80182419  0.66457381  0.53326416     0.06500
C328        C  0.79932425  0.64817242  0.53041902     0.04600
H329        H  0.80704958  0.68353460  0.51512330     0.09700
H330        H  0.79746252  0.63886919  0.53940628     0.08500
N331        N  0.82526541  0.20071668  0.67165244    -0.02000
C332        C  0.83647144  0.18914846  0.66894541     0.00600
C333        C  0.82955522  0.17394040  0.67018849    -0.22300
C334        C  0.81348437  0.17621596  0.67368459    -0.22500
C335        C  0.81113186  0.19274389  0.67438652     0.00400
H336        H  0.83559278  0.16243831  0.66884001     0.14200
H337        H  0.80437265  0.16684321  0.67488693     0.14300
N338        N  0.80933958  0.31836249  0.65716441    -0.02000
C339        C  0.80805547  0.32940082  0.64513463     0.00600
C340        C  0.80284733  0.34403906  0.65132727    -0.22300
C341        C  0.80084907  0.34200505  0.66772772    -0.22500
C342        C  0.80496207  0.32619520  0.67098958     0.00400
H343        H  0.80060941  0.35498629  0.64457257     0.14200
H344        H  0.79711074  0.35113997  0.67637610     0.14300
N345        N  0.69990412  0.33159943  0.77491064    -0.02000
C346        C  0.69084068  0.34469143  0.77071653     0.00600
C347        C  0.67747860  0.33996032  0.76173241    -0.22300
C348        C  0.67808631  0.32352554  0.76025338    -0.22500
C349        C  0.69184596  0.31862063  0.76829605     0.00400
H350        H  0.66802066  0.34766972  0.75710939     0.14200
H351        H  0.66930606  0.31587934  0.75409705     0.14300
N352        N  0.81504504  0.31173253  0.80185998    -0.02000
C353        C  0.82414989  0.30778637  0.81500564     0.00600
C354        C  0.83831662  0.30036650  0.81024843    -0.22300
C355        C  0.83802939  0.29957476  0.79366127    -0.22500
C356        C  0.82366930  0.30646182  0.78880746     0.00400
H357        H  0.84803223  0.29634224  0.81803113     0.14200
H358        H  0.84731460  0.29455092  0.78593006     0.14300
N359        N  0.68123011  0.21546142  0.66718170    -0.02000
C360        C  0.66858267  0.22091280  0.65820255     0.00600
C361        C  0.67417009  0.22850328  0.64436819    -0.22300
C362        C  0.69070525  0.22768517  0.64473642    -0.22500
C363        C  0.69476759  0.21974899  0.65885072     0.00400
H364        H  0.66694482  0.23357916  0.63471377     0.14200
H365        H  0.69890616  0.23229786  0.63562766     0.14300
N366        N  0.69965420  0.18686885  0.78129671    -0.02000
C367        C  0.69830923  0.17554173  0.79308798     0.00600
C368        C  0.70164126  0.18240186  0.80808379    -0.22300
C369        C  0.70512653  0.19844988  0.80548590    -0.22500
C370        C  0.70378393  0.20090312  0.78897247     0.00400
H371        H  0.70190553  0.17626588  0.81964318     0.14200
H372        H  0.70796127  0.20743279  0.81469095     0.14300
N373        N  0.53563669  0.20911098  0.33025330    -0.25900
N374        N  0.54371786  0.20853840  0.34414472    -0.33700
C375        C  0.55968142  0.20857597  0.34092842     0.02500
C376        C  0.56188337  0.20939012  0.32427049     0.08500
C377        C  0.54633051  0.20973672  0.31791586    -0.04600
H378        H  0.56904830  0.20818264  0.35010175     0.09200
H379        H  0.54300009  0.21003993  0.30522139     0.10400
Cu380      Cu  0.53315936  0.20786365  0.36725031     0.44200
Cu381      Cu  0.51032333  0.20851139  0.32837324     0.42000
Cu382      Cu  0.49017122  0.20434838  0.36685089     0.43900
N383        N  0.51936274  0.20691268  0.38852999    -0.33200
N384        N  0.50347887  0.20521046  0.38810438    -0.27500
C385        C  0.49770246  0.20499388  0.40332608    -0.03600
C386        C  0.51053227  0.20665375  0.41406420     0.08600
C387        C  0.52411505  0.20792979  0.40419020     0.02400
H388        H  0.48498850  0.20419893  0.40626376     0.10100
H389        H  0.53653504  0.20941425  0.40810255     0.09100
N390        N  0.47799320  0.20602920  0.34499489    -0.34700
N391        N  0.48507951  0.20770096  0.33075026    -0.26900
C392        C  0.47349371  0.20920464  0.31928746    -0.02100
C393        C  0.45839277  0.20836596  0.32671637     0.06500
C394        C  0.46188417  0.20644545  0.34305021     0.04600
H395        H  0.47589519  0.21090905  0.30651434     0.09700
H396        H  0.45343082  0.20601744  0.35301855     0.08500
N397        N  0.52859853  0.20226624  0.62119578    -0.25900
N398        N  0.53679209  0.20143706  0.60746152    -0.33700
C399        C  0.55268622  0.20128762  0.61086646     0.02500
C400        C  0.55467789  0.20227162  0.62753185     0.08500
C401        C  0.53911573  0.20289692  0.63371004    -0.04600
H402        H  0.56213588  0.20104740  0.60181473     0.09200
H403        H  0.53566293  0.20373627  0.64633715     0.10400
Cu404      Cu  0.52627119  0.20178591  0.58453370     0.44200
Cu405      Cu  0.50349261  0.20277758  0.62206224     0.42000
Cu406      Cu  0.48290483  0.20533102  0.58290626     0.43900
N407        N  0.51337881  0.20348383  0.56292960    -0.33200
N408        N  0.49747937  0.20477268  0.56228347    -0.27500
C409        C  0.49289476  0.20585911  0.54663701    -0.03600
C410        C  0.50656261  0.20522111  0.53686610     0.08600
C411        C  0.51932901  0.20376367  0.54774604     0.02400
H412        H  0.48047430  0.20699131  0.54269657     0.10100
H413        H  0.53208492  0.20333837  0.54498092     0.09100
N414        N  0.47108091  0.20538970  0.60524928    -0.34700
N415        N  0.47853423  0.20398068  0.61939134    -0.26900
C416        C  0.46743384  0.20381257  0.63130990    -0.02100
C417        C  0.45226114  0.20543908  0.62440761     0.06500
C418        C  0.45505168  0.20638825  0.60785505     0.04600
H419        H  0.47022955  0.20275856  0.64409013     0.09700
H420        H  0.44606968  0.20733813  0.59835002     0.08500
N421        N  0.80801364  0.31737964  0.30209929    -0.02000
C422        C  0.80764593  0.32848043  0.31439094     0.00600
C423        C  0.80299075  0.34336999  0.30859139    -0.22300
C424        C  0.80039073  0.34153502  0.29225982    -0.22500
C425        C  0.80343070  0.32551424  0.28849994     0.00400
H426        H  0.80139506  0.35435956  0.31560146     0.14200
H427        H  0.79672204  0.35094325  0.28398464     0.14300
N428        N  0.83423904  0.20226118  0.28141029    -0.02000
C429        C  0.84662703  0.19162499  0.27990039     0.00600
C430        C  0.84083599  0.17672485  0.27474303    -0.22300
C431        C  0.82441661  0.17817133  0.27290990    -0.22500
C432        C  0.82066935  0.19392452  0.27699844     0.00400
H433        H  0.84790411  0.16603454  0.27221308     0.14200
H434        H  0.81608920  0.16873492  0.26906883     0.14300
N435        N  0.69045296  0.34252683  0.18271522    -0.02000
C436        C  0.68140926  0.35419737  0.18996547     0.00600
C437        C  0.66789736  0.34731552  0.19710373    -0.22300
C438        C  0.66867221  0.33096635  0.19433730    -0.22500
C439        C  0.68263006  0.32829690  0.18559728     0.00400
H440        H  0.65826032  0.35356903  0.20334422     0.14200
H441        H  0.66007326  0.32196291  0.19844369     0.14300
N442        N  0.80150058  0.31443776  0.15582151    -0.02000
C443        C  0.81058427  0.31111644  0.14253427     0.00600
C444        C  0.82389172  0.30204651  0.14677163    -0.22300
C445        C  0.82296092  0.29954472  0.16319084    -0.22500
C446        C  0.80912576  0.30721157  0.16848254     0.00400
H447        H  0.83331317  0.29778240  0.13875228     0.14200
H448        H  0.83160604  0.29307555  0.17053796     0.14300
N449        N  0.68846076  0.21144572  0.28257524    -0.02000
C450        C  0.67595102  0.21680424  0.29176569     0.00600
C451        C  0.68147469  0.22145307  0.30695024    -0.22300
C452        C  0.69787864  0.21895078  0.30711517    -0.22500
C453        C  0.70191600  0.21289014  0.29200038     0.00400
H454        H  0.67424921  0.22574984  0.31700486     0.14200
H455        H  0.70601763  0.22142589  0.31714498     0.14300
N456        N  0.70466411  0.19908434  0.16420530    -0.02000
C457        C  0.70487223  0.18702490  0.15297272     0.00600
C458        C  0.70706681  0.19331046  0.13764240    -0.22300
C459        C  0.70826392  0.20982813  0.13946836    -0.22500
C460        C  0.70672853  0.21310090  0.15587768     0.00400
H461        H  0.70782652  0.18658220  0.12636368     0.14200
H462        H  0.70963959  0.21852464  0.12980253     0.14300
N463        N  0.32072747  0.99945700  0.83542056    -0.25900
N464        N  0.32198692  0.99188105  0.84944206    -0.33700
C465        C  0.32247991  0.97583466  0.84665174     0.02500
C466        C  0.32137720  0.97311455  0.83006209     0.08500
C467        C  0.32019247  0.98839898  0.82335043    -0.04600
H468        H  0.32297211  0.96680739  0.85608029     0.09200
H469        H  0.31903377  0.99128352  0.81061692     0.10400
Cu470      Cu  0.32150896  0.00359868  0.87184347     0.44200
Cu471      Cu  0.31981619  0.02453733  0.83347805     0.42000
Cu472      Cu  0.31648142  0.04691722  0.87180977     0.43900
N473        N  0.31809668  0.01721281  0.89285261    -0.33200
N474        N  0.31580379  0.03302192  0.89301118    -0.27500
C475        C  0.31388285  0.03795490  0.90854243    -0.03600
C476        C  0.31511361  0.02459535  0.91866769     0.08600
C477        C  0.31778787  0.01170761  0.90816818     0.02400
H478        H  0.31231955  0.05043245  0.91219578     0.10100
H479        H  0.31944720  0.99916744  0.91140100     0.09100
N480        N  0.31910336  0.05777201  0.84901140    -0.34700
N481        N  0.32021460  0.04969401  0.83514944    -0.26900
C482        C  0.32198627  0.06030584  0.82291092    -0.02100
C483        C  0.32216131  0.07588096  0.82930609     0.06500
C484        C  0.32020400  0.07371538  0.84590904     0.04600
H485        H  0.32328062  0.05688993  0.81029001     0.09700
H486        H  0.31936677  0.08303550  0.85512444     0.08500
N487        N  0.32366334  0.99386475  0.12533840    -0.25900
N488        N  0.32365922  0.98616174  0.11120680    -0.33700
C489        C  0.32423085  0.97014311  0.11389424     0.02500
C490        C  0.32469034  0.96748394  0.13050736     0.08500
C491        C  0.32419608  0.98287043  0.13735358    -0.04600
H492        H  0.32384888  0.96110671  0.10435661     0.09200
H493        H  0.32420945  0.98588406  0.15014680     0.10400
Cu494      Cu  0.32253256  0.99731562  0.08853361     0.44200
Cu495      Cu  0.32263895  0.01902976  0.12770391     0.42000
Cu496      Cu  0.32100769  0.04044930  0.08925823     0.43900
N497        N  0.32135733  0.01112517  0.06740312    -0.33200
N498        N  0.32088379  0.02708618  0.06776782    -0.27500
C499        C  0.32000565  0.03263304  0.05247088    -0.03600
C500        C  0.31982103  0.01955742  0.04178618     0.08600
C501        C  0.32077311  0.00608847  0.05181106     0.02400
H502        H  0.31923001  0.04530471  0.04940398     0.10100
H503        H  0.32117739  0.99352416  0.04813791     0.09100
N504        N  0.32063109  0.05180467  0.11187359    -0.34700
N505        N  0.32111920  0.04418924  0.12592517    -0.26900
C506        C  0.32033205  0.05523253  0.13803110    -0.02100
C507        C  0.31931796  0.07057274  0.13127248     0.06500
C508        C  0.31957529  0.06779858  0.11465382     0.04600
H509        H  0.32065524  0.05225829  0.15078271     0.09700
H510        H  0.31874887  0.07674521  0.10517498     0.08500
N511        N  0.65284691  0.48375152  0.79544546    -0.25900
N512        N  0.63907653  0.47565285  0.79702230    -0.33700
C513        C  0.64216884  0.45971173  0.79694789     0.02500
C514        C  0.65864764  0.45747034  0.79508230     0.08500
C515        C  0.66503064  0.47304633  0.79419371    -0.04600
H516        H  0.63294514  0.45039899  0.79762495     0.09200
H517        H  0.67760378  0.47642022  0.79280539     0.10400
Cu518      Cu  0.61616443  0.48589191  0.79790162     0.44200
Cu519      Cu  0.65454010  0.50906594  0.79502106     0.42000
Cu520      Cu  0.61532680  0.52851403  0.79911072     0.43900
N521        N  0.59463280  0.49867530  0.79633478    -0.33200
N522        N  0.59440446  0.51461157  0.79688931    -0.27500
C523        C  0.57912844  0.51965431  0.79476775    -0.03600
C524        C  0.56903708  0.50623481  0.79267043     0.08600
C525        C  0.57947156  0.49310923  0.79379425     0.02400
H526        H  0.57574683  0.53225562  0.79460085     0.10100
H527        H  0.57652500  0.48043260  0.79240080     0.09100
N528        N  0.63725392  0.54089869  0.79842302    -0.34700
N529        N  0.65158104  0.53419282  0.79645181    -0.26900
C530        C  0.66287057  0.54606163  0.79560914    -0.02100
C531        C  0.65524577  0.56098475  0.79713916     0.06500
C532        C  0.63901501  0.55702952  0.79897699     0.04600
H533        H  0.67559212  0.54390046  0.79366340     0.09700
H534        H  0.62901553  0.56524042  0.80051024     0.08500
N535        N  0.36604320  0.54739709  0.78357660    -0.25900
N536        N  0.38074904  0.55375278  0.78438512    -0.33700
C537        C  0.37953870  0.56990745  0.78574362     0.02500
C538        C  0.36330120  0.57413223  0.78578305     0.08500
C539        C  0.35511947  0.55942448  0.78437472    -0.04600
H540        H  0.38985483  0.57795766  0.78676206     0.09200
H541        H  0.34219784  0.55749949  0.78369722     0.10400
Cu542      Cu  0.40224751  0.54064756  0.78341093     0.44200
Cu543      Cu  0.36152755  0.52257843  0.78141113     0.42000
Cu544      Cu  0.39812474  0.49851160  0.77591994     0.43900
N545        N  0.42213609  0.52528924  0.78164685    -0.33200
N546        N  0.42057922  0.50967057  0.77852946    -0.27500
C547        C  0.43533549  0.50286446  0.77835312    -0.03600
C548        C  0.44686348  0.51474257  0.78165151     0.08600
C549        C  0.43794894  0.52884562  0.78358064     0.02400
H550        H  0.43745891  0.49010228  0.77641006     0.10100
H551        H  0.44255221  0.54087687  0.78609015     0.09100
N552        N  0.37486813  0.48891593  0.77711732    -0.34700
N553        N  0.36154253  0.49736915  0.77941356    -0.26900
C554        C  0.34892580  0.48701550  0.78073102    -0.02100
C555        C  0.35461841  0.47127988  0.77935200     0.06500
C556        C  0.37111090  0.47309396  0.77688178     0.04600
H557        H  0.33659714  0.49067043  0.78298832     0.09700
H558        H  0.37990879  0.46365436  0.77507840     0.08500
N559        N  0.21376177  0.71416291  0.65318650    -0.02000
C560        C  0.21782974  0.70496609  0.64020584     0.00600
C561        C  0.22727615  0.69210492  0.64497888    -0.22300
C562        C  0.22919370  0.69349251  0.66150861    -0.22500
C563        C  0.22082767  0.70715619  0.66620614     0.00400
H564        H  0.23190635  0.68252886  0.63731242     0.14200
H565        H  0.23560887  0.68520458  0.66928830     0.14300
N566        N  0.18409325  0.82534570  0.68314446    -0.02000
C567        C  0.17159164  0.83318060  0.69032004     0.00600
C568        C  0.17725053  0.84671365  0.69861067    -0.22300
C569        C  0.19373040  0.84712444  0.69667918    -0.22500
C570        C  0.19758599  0.83388615  0.68724458     0.00400
H571        H  0.17009761  0.85556505  0.70507164     0.14200
H572        H  0.20201305  0.85609024  0.70160741     0.14300
N573        N  0.32898142  0.83334986  0.67075016    -0.02000
C574        C  0.34182201  0.83413482  0.66053748     0.00600
C575        C  0.33670727  0.83253438  0.64464553    -0.22300
C576        C  0.32020000  0.83072129  0.64502425    -0.22500
C577        C  0.31569268  0.83114630  0.66118292     0.00400
H578        H  0.34425746  0.83228123  0.63393898     0.14200
H579        H  0.31235202  0.82921375  0.63459061     0.14300
N580        N  0.31034099  0.84649524  0.78932565    -0.02000
C581        C  0.30680626  0.85912881  0.79927774     0.00600
C582        C  0.30116668  0.85351477  0.81401421    -0.22300
C583        C  0.30090770  0.83692495  0.81300881    -0.22500
C584        C  0.30643024  0.83294458  0.79770496     0.00400
H585        H  0.29761145  0.86074108  0.82439014     0.14200
H586        H  0.29712978  0.82865926  0.82242012     0.14300
N587        N  0.32635991  0.70229852  0.78846802    -0.02000
C588        C  0.33838111  0.69164481  0.79149968     0.00600
C589        C  0.35323974  0.69940484  0.79048254    -0.22300
C590        C  0.35023552  0.71530324  0.78679892    -0.22500
C591        C  0.33365245  0.71677883  0.78570808     0.00400
H592        H  0.36503803  0.69402437  0.79196867     0.14200
H593        H  0.35915605  0.72484298  0.78548707     0.14300
N594        N  0.20805955  0.71629844  0.79752452    -0.02000
C595        C  0.19785170  0.71638713  0.81035390     0.00600
C596        C  0.18301480  0.72250599  0.80586915    -0.22300
C597        C  0.18407887  0.72632630  0.78970734    -0.22500
C598        C  0.19955466  0.72236682  0.78483077     0.00400
H599        H  0.17240807  0.72361587  0.81345059     0.14200
H600        H  0.17433611  0.73072005  0.78217850     0.14300
N601        N  0.69081145  0.68981678  0.78471473    -0.02000
C602        C  0.68006538  0.67745766  0.78638873     0.00600
C603        C  0.66471928  0.68246037  0.78211460    -0.22300
C604        C  0.66597570  0.69842967  0.77780159    -0.22500
C605        C  0.68205520  0.70273600  0.77963769     0.00400
H606        H  0.65372625  0.67528365  0.78233973     0.14200
H607        H  0.65608390  0.70623402  0.77443623     0.14300
N608        N  0.80478961  0.72120922  0.80474684    -0.02000
C609        C  0.81473843  0.72434111  0.81752192     0.00600
C610        C  0.82846111  0.73245613  0.81240720    -0.22300
C611        C  0.82693294  0.73449450  0.79595635    -0.22500
C612        C  0.81234422  0.72750191  0.79155037     0.00400
H613        H  0.83855703  0.73637493  0.81987041     0.14200
H614        H  0.83567457  0.74014152  0.78800797     0.14300
N615        N  0.80699182  0.71315208  0.65922714    -0.02000
C616        C  0.80667219  0.70192422  0.64712131     0.00600
C617        C  0.80257805  0.68692322  0.65322053    -0.22300
C618        C  0.80026033  0.68891237  0.66959480    -0.22500
C619        C  0.80307678  0.70507629  0.67301593     0.00400
H620        H  0.80106108  0.67579006  0.64638301     0.14200
H621        H  0.79689039  0.67956742  0.67810424     0.14300
N622        N  0.82725288  0.82644260  0.69005627    -0.02000
C623        C  0.83996911  0.83470585  0.69656898     0.00600
C624        C  0.83466503  0.84874442  0.70402421    -0.22300
C625        C  0.81817669  0.84918111  0.70201389    -0.22500
C626        C  0.81391926  0.83533596  0.69351240     0.00400
H627        H  0.84207479  0.85798386  0.70978454     0.14200
H628        H  0.81016229  0.85858072  0.70627445     0.14300
N629        N  0.68531343  0.81369700  0.66537369    -0.02000
C630        C  0.67369066  0.81337713  0.65375700     0.00600
C631        C  0.68060395  0.81144524  0.63861718    -0.22300
C632        C  0.69706382  0.81063015  0.64099904    -0.22500
C633        C  0.69964721  0.81217776  0.65751676     0.00400
H634        H  0.67434076  0.81077196  0.62708391     0.14200
H635        H  0.70617746  0.80967270  0.63164779     0.14300
N636        N  0.70036637  0.83421805  0.78294673    -0.02000
C637        C  0.70294526  0.84684704  0.79326018     0.00600
C638        C  0.70791147  0.84125299  0.80824240    -0.22300
C639        C  0.70854429  0.82467135  0.80710251    -0.22500
C640        C  0.70388750  0.82072833  0.79148301     0.00400
H641        H  0.71079981  0.84850286  0.81885598     0.14200
H642        H  0.71185407  0.81639001  0.81664887     0.14300
N643        N  0.50984711  0.80683470  0.39034381    -0.25900
N644        N  0.49411420  0.80395569  0.39005802    -0.33700
C645        C  0.48886829  0.80202765  0.40540745     0.02500
C646        C  0.50193421  0.80370551  0.41600427     0.08500
C647        C  0.51501161  0.80675734  0.40585286    -0.04600
H648        H  0.47633033  0.80006250  0.40852126     0.09200
H649        H  0.52743877  0.80887350  0.40942517     0.10400
Cu650      Cu  0.48046350  0.80357357  0.36866353     0.44200
Cu651      Cu  0.52350405  0.81133553  0.36956540     0.42000
Cu652      Cu  0.50161539  0.81357799  0.33129846     0.43900
N653        N  0.46914577  0.80558619  0.34605772    -0.33200
N654        N  0.47672630  0.80973607  0.33257609    -0.27500
C655        C  0.46579925  0.81106073  0.32049812    -0.03600
C656        C  0.45060396  0.80738184  0.32658374     0.08600
C657        C  0.45324507  0.80397483  0.34283717     0.02400
H658        H  0.46870423  0.81450646  0.30819752     0.10100
H659        H  0.44418703  0.80115671  0.35185178     0.09100
N660        N  0.52664337  0.81593795  0.33326107    -0.34700
N661        N  0.53458771  0.81522764  0.34717916    -0.26900
C662        C  0.55053711  0.81661267  0.34420882    -0.02100
C663        C  0.55285079  0.81813680  0.32759609     0.06500
C664        C  0.53734264  0.81771694  0.32109270     0.04600
H665        H  0.55981322  0.81593905  0.35345170     0.09700
H666        H  0.53398385  0.81853395  0.30844169     0.08500
N667        N  0.49598249  0.80854408  0.56526534    -0.25900
N668        N  0.51147739  0.80477525  0.56540943    -0.33700
C669        C  0.51644271  0.80230077  0.55003746     0.02500
C670        C  0.50343689  0.80452653  0.53954272     0.08500
C671        C  0.49067998  0.80848658  0.54979105    -0.04600
H672        H  0.52880669  0.79965172  0.54684218     0.09200
H673        H  0.47841518  0.81130696  0.54629833     0.10400
Cu674      Cu  0.52538072  0.80419790  0.58656703     0.44200
Cu675      Cu  0.48307824  0.81446955  0.58622963     0.42000
Cu676      Cu  0.50614525  0.81741585  0.62399138     0.43900
N677        N  0.53752428  0.80674339  0.60867561    -0.33200
N678        N  0.53076531  0.81224526  0.62213967    -0.27500
C679        C  0.54222511  0.81364124  0.63375434    -0.03600
C680        C  0.55685302  0.80851350  0.62739050     0.08600
C681        C  0.55335379  0.80425346  0.61145687     0.02400
H682        H  0.54006380  0.81804388  0.64594276     0.10100
H683        H  0.56182808  0.80023565  0.60232794     0.09100
N684        N  0.48117639  0.82082731  0.62251553    -0.34700
N685        N  0.47291051  0.82009938  0.60875274    -0.26900
C686        C  0.45721853  0.82297736  0.61191569    -0.02100
C687        C  0.45540475  0.82542608  0.62847548     0.06500
C688        C  0.47088306  0.82394955  0.63479606     0.04600
H689        H  0.44772825  0.82288471  0.60285465     0.09700
H690        H  0.47444538  0.82516716  0.64738688     0.08500
N691        N  0.67902328  0.80553816  0.28559604    -0.02000
C692        C  0.66537390  0.80098042  0.29367313     0.00600
C693        C  0.66924287  0.79147176  0.30683802    -0.22300
C694        C  0.68574357  0.79018748  0.30713656    -0.22500
C695        C  0.69147052  0.79881093  0.29405261     0.00400
H696        H  0.66093966  0.78657318  0.31570319     0.14200
H697        H  0.69286294  0.78394516  0.31614672     0.14300
N698        N  0.71134460  0.84276862  0.17612086    -0.02000
C699        C  0.71657668  0.85651229  0.16865306     0.00600
C700        C  0.72648024  0.85272596  0.15569823    -0.22300
C701        C  0.72733893  0.83621006  0.15491801    -0.22500
C702        C  0.71803364  0.83035230  0.16747713     0.00400
H703        H  0.73187127  0.86110831  0.14721067     0.14200
H704        H  0.73368768  0.82917363  0.14586261     0.14300
N705        N  0.81716469  0.70134191  0.30281095    -0.02000
C706        C  0.81238698  0.69127701  0.31489865     0.00600
C707        C  0.80695257  0.67669058  0.30860780    -0.22300
C708        C  0.80833600  0.67768966  0.29208176    -0.22500
C709        C  0.81441688  0.69291870  0.28879488     0.00400
H710        H  0.80263669  0.66634936  0.31536864     0.14200
H711        H  0.80496094  0.66842265  0.28334933     0.14300
N712        N  0.82360856  0.81930671  0.28890346    -0.02000
C713        C  0.83433112  0.83182512  0.28946201     0.00600
C714        C  0.82656907  0.84612270  0.28573877    -0.22300
C715        C  0.81062768  0.84230373  0.28281088    -0.22500
C716        C  0.80909560  0.82581252  0.28490680     0.00400
H717        H  0.83199912  0.85803848  0.28491598     0.14200
H718        H  0.80110403  0.85069489  0.27981712     0.14300
N719        N  0.69939890  0.69789042  0.16776750    -0.02000
C720        C  0.68820780  0.68593013  0.16581446     0.00600
C721        C  0.67279826  0.69223931  0.16665163    -0.22300
C722        C  0.67450577  0.70860039  0.16924399    -0.22500
C723        C  0.69091714  0.71178688  0.16982361     0.00400
H724        H  0.66151607  0.68556439  0.16585157     0.14200
H725        H  0.66482735  0.71727292  0.17039670     0.14300
N726        N  0.81828033  0.71520110  0.15771588    -0.02000
C727        C  0.82766827  0.71802870  0.14453343     0.00600
C728        C  0.84284087  0.72333323  0.14924854    -0.22300
C729        C  0.84286850  0.72386804  0.16587961    -0.22500
C730        C  0.82764677  0.71894934  0.17083294     0.00400
H731        H  0.85289819  0.72625889  0.14139059     0.14200
H732        H  0.85306624  0.72710408  0.17351337     0.14300
N733        N  0.35737751  0.49559422  0.18430581    -0.25900
N734        N  0.37137842  0.48797591  0.18412029    -0.33700
C735        C  0.36854616  0.47190237  0.18400624     0.02500
C736        C  0.35194369  0.46917039  0.18422917     0.08500
C737        C  0.34530023  0.48456670  0.18436904    -0.04600
H738        H  0.37793330  0.46285767  0.18404450     0.09200
H739        H  0.33261373  0.48762433  0.18430289     0.10400
Cu740      Cu  0.39375374  0.49989722  0.18431497     0.44200
Cu741      Cu  0.35537046  0.52074176  0.18446833     0.42000
Cu742      Cu  0.39319197  0.54374640  0.18474645     0.43900
N743        N  0.41460796  0.51432725  0.18462659    -0.33200
N744        N  0.41445912  0.53031676  0.18487276    -0.27500
C745        C  0.42983326  0.53585978  0.18490057    -0.03600
C746        C  0.44025929  0.52274611  0.18453445     0.08600
C747        C  0.43005580  0.50930482  0.18447240     0.02400
H748        H  0.43315194  0.54853918  0.18489313     0.10100
H749        H  0.43350643  0.49672067  0.18452534     0.09100
N750        N  0.37033776  0.55425525  0.18398222    -0.34700
N751        N  0.35660493  0.54595270  0.18411124    -0.26900
C752        C  0.34416165  0.55636010  0.18328771    -0.02100
C753        C  0.35031604  0.57198943  0.18248164     0.06500
C754        C  0.36697038  0.57012255  0.18293479     0.04600
H755        H  0.33157932  0.55273657  0.18276263     0.09700
H756        H  0.37602328  0.57961788  0.18248629     0.08500
N757        N  0.64597554  0.49575889  0.18243838    -0.25900
N758        N  0.63183997  0.48813764  0.18257602    -0.33700
C759        C  0.63441366  0.47210010  0.18307942     0.02500
C760        C  0.65091655  0.46941903  0.18347999     0.08500
C761        C  0.65788394  0.48471146  0.18310004    -0.04600
H762        H  0.62492680  0.46302403  0.18323314     0.09200
H763        H  0.67066083  0.48758936  0.18284787     0.10400
Cu764      Cu  0.60936922  0.49947345  0.18228199     0.44200
Cu765      Cu  0.64850960  0.52082281  0.18048826     0.42000
Cu766      Cu  0.61059843  0.54267910  0.18001360     0.43900
N767        N  0.58855881  0.51361102  0.18241004    -0.33200
N768        N  0.58912394  0.52955675  0.18165122    -0.27500
C769        C  0.57396063  0.53534702  0.18188747    -0.03600
C770        C  0.56315748  0.52243774  0.18276147     0.08600
C771        C  0.57296157  0.50882954  0.18315809     0.02400
H772        H  0.57113391  0.54808629  0.18166234     0.10100
H773        H  0.56906053  0.49633080  0.18373247     0.09100
N774        N  0.63315246  0.55370356  0.17764823    -0.34700
N775        N  0.64703817  0.54587992  0.17788767    -0.26900
C776        C  0.65921865  0.55664059  0.17602258    -0.02100
C777        C  0.65268978  0.57200823  0.17451460     0.06500
C778        C  0.63611402  0.56956694  0.17557127     0.04600
H779        H  0.67185549  0.55341821  0.17549386     0.09700
H780        H  0.62681702  0.57868702  0.17502375     0.08500
N781        N  0.32508926  0.80912562  0.28015790    -0.02000
C782        C  0.33648675  0.80915141  0.29206708     0.00600
C783        C  0.32995909  0.80339481  0.30635881    -0.22300
C784        C  0.31402274  0.79980317  0.30325736    -0.22500
C785        C  0.31129398  0.80354698  0.28719010     0.00400
H786        H  0.33618475  0.80189676  0.31781354     0.14200
H787        H  0.30519627  0.79557616  0.31195810     0.14300
N788        N  0.30679397  0.84094366  0.16655466    -0.02000
C789        C  0.30320558  0.85461966  0.15829789     0.00600
C790        C  0.29552864  0.85077945  0.14383146    -0.22300
C791        C  0.29437503  0.83419450  0.14308869    -0.22500
C792        C  0.30128679  0.82848313  0.15718223     0.00400
H793        H  0.29161000  0.85914886  0.13459807     0.14200
H794        H  0.28896242  0.82708109  0.13340648     0.14300
N795        N  0.18268863  0.69684629  0.29909780    -0.02000
C796        C  0.17926774  0.68846229  0.31278769     0.00600
C797        C  0.17619092  0.67242476  0.30917445    -0.22300
C798        C  0.17765961  0.67077867  0.29272503    -0.22500
C799        C  0.18181703  0.68585518  0.28668882     0.00400
H800        H  0.17356935  0.66284268  0.31768427     0.14200
H801        H  0.17573382  0.65968556  0.28593921     0.14300
N802        N  0.18020055  0.81316560  0.26820210    -0.02000
C803        C  0.16828816  0.82302902  0.26276239     0.00600
C804        C  0.17494686  0.83691934  0.25617688    -0.22300
C805        C  0.19143458  0.83562759  0.25761487    -0.22500
C806        C  0.19430158  0.82097252  0.26493786     0.00400
H807        H  0.16846702  0.84720709  0.25145594     0.14200
H808        H  0.20036753  0.84446342  0.25386655     0.14300
N809        N  0.30420742  0.69690506  0.17890253    -0.02000
C810        C  0.31396242  0.68444063  0.18296997     0.00600
C811        C  0.32824625  0.69017624  0.18963188    -0.22300
C812        C  0.32726534  0.70673521  0.18979476    -0.22500
C813        C  0.31236737  0.71058085  0.18326790     0.00400
H814        H  0.33834030  0.68304601  0.19381830     0.14200
H815        H  0.33656343  0.71507422  0.19393426     0.14300
N816        N  0.18685638  0.68600114  0.15275553    -0.02000
C817        C  0.17810661  0.68140900  0.13950079     0.00600
C818        C  0.16275280  0.67657777  0.14408496    -0.22300
C819        C  0.16199996  0.67816145  0.16062106    -0.22500
C820        C  0.17688004  0.68404060  0.16572717     0.00400
H821        H  0.15291035  0.67286323  0.13619146     0.14200
H822        H  0.15164415  0.67530536  0.16810019     0.14300
N823        N  0.02864184  0.86279175  0.27912512    -0.25900
N824        N  0.03683817  0.87651406  0.27767572    -0.33700
C825        C  0.05275132  0.87333640  0.27778363     0.02500
C826        C  0.05485222  0.85680603  0.27918109     0.08500
C827        C  0.03925647  0.85048750  0.27999614    -0.04600
H828        H  0.06213109  0.88240617  0.27638476     0.09200
H829        H  0.03584919  0.83789188  0.28114492     0.10400
Cu830      Cu  0.02657183  0.89916380  0.27454489     0.44200
Cu831      Cu  0.00330553  0.86157990  0.27957641     0.42000
Cu832      Cu  0.98368687  0.90061066  0.27310532     0.43900
N833        N  0.01405773  0.92060135  0.27121250    -0.33200
N834        N  0.99811801  0.92116162  0.27071179    -0.27500
C835        C  0.99351939  0.93667934  0.26926190    -0.03600
C836        C  0.00725320  0.94644018  0.26876018     0.08600
C837        C  0.02005488  0.93572731  0.27003129     0.02400
H838        H  0.98106592  0.94056633  0.26883739     0.10100
H839        H  0.03279128  0.93868910  0.27074590     0.09100
N840        N  0.97133124  0.87895347  0.27689895    -0.34700
N841        N  0.97816955  0.86477201  0.27933153    -0.26900
C842        C  0.96642353  0.85357621  0.28154703    -0.02100
C843        C  0.95137181  0.86104265  0.28046205     0.06500
C844        C  0.95519974  0.87717352  0.27751413     0.04600
H845        H  0.96884938  0.84096558  0.28374853     0.09700
H846        H  0.94694828  0.88713168  0.27605844     0.08500
N847        N  0.98689862  0.15192080  0.27557820    -0.25900
N848        N  0.97930829  0.13781876  0.27610884    -0.33700
C849        C  0.96333819  0.14036930  0.27761011     0.02500
C850        C  0.96065664  0.15690782  0.27799117     0.08500
C851        C  0.97590662  0.16385022  0.27654776    -0.04600
H852        H  0.95433225  0.13083866  0.27813596     0.09200
H853        H  0.97883366  0.17662501  0.27657190     0.10400
Cu854      Cu  0.99103463  0.11572468  0.27449411     0.44200
Cu855      Cu  0.01196916  0.15384737  0.27453662     0.42000
Cu856      Cu  0.03467732  0.11566570  0.27428474     0.43900
N857        N  0.00466441  0.09485055  0.27201329    -0.33200
N858        N  0.02063945  0.09464624  0.27195707    -0.27500
C859        C  0.02555417  0.07918449  0.27048367    -0.03600
C860        C  0.01200097  0.06915281  0.26949369     0.08600
C861        C  0.99900666  0.07962326  0.27055596     0.02400
H862        H  0.03808288  0.07552610  0.27022663     0.10100
H863        H  0.98630647  0.07646146  0.27081031     0.09100
N864        N  0.04522898  0.13866461  0.27616735    -0.34700
N865        N  0.03704621  0.15236461  0.27576491    -0.26900
C866        C  0.04750697  0.16488908  0.27667249    -0.02100
C867        C  0.06304633  0.15886015  0.27778785     0.06500
C868        C  0.06110368  0.14217932  0.27752174     0.04600
H869        H  0.04398960  0.17746659  0.27674010     0.09700
H870        H  0.07057862  0.13323244  0.27791902     0.08500
N871        N  0.30361297  0.34352131  0.18981396    -0.02000
C872        C  0.31257485  0.35566292  0.19674353     0.00600
C873        C  0.32465939  0.34936631  0.20639567    -0.22300
C874        C  0.32328700  0.33287137  0.20547970    -0.22500
C875        C  0.31039775  0.32951903  0.19533189     0.00400
H876        H  0.33389684  0.35609300  0.21293793     0.14200
H877        H  0.33108763  0.32419034  0.21131018     0.14300
N878        N  0.19051196  0.32055885  0.15955017    -0.02000
C879        C  0.18259890  0.31605039  0.14568067     0.00600
C880        C  0.16959499  0.30607554  0.14913949    -0.22300
C881        C  0.16924000  0.30434096  0.16561531    -0.22500
C882        C  0.18215076  0.31312724  0.17172908     0.00400
H883        H  0.16085950  0.30116168  0.14060021     0.14200
H884        H  0.16033644  0.29761983  0.17248274     0.14300
N885        N  0.33166621  0.22710046  0.28741620    -0.02000
C886        C  0.34436614  0.23290275  0.29637549     0.00600
C887        C  0.33887288  0.24287543  0.30869768    -0.22300
C888        C  0.32234590  0.24322779  0.30748126    -0.22500
C889        C  0.31819851  0.23361615  0.29435383     0.00400
H890        H  0.34609631  0.24873361  0.31802830     0.14200
H891        H  0.31417139  0.24957426  0.31549762     0.14300
N892        N  0.30423458  0.19680012  0.17579650    -0.02000
C893        C  0.29905679  0.18422056  0.16630327     0.00600
C894        C  0.28961186  0.18980327  0.15368519    -0.22300
C895        C  0.28888415  0.20631511  0.15530987    -0.22500
C896        C  0.29789862  0.21034503  0.16886184     0.00400
H897        H  0.28418165  0.18262833  0.14405630     0.14200
H898        H  0.28258285  0.21454455  0.14737282     0.14300
N899        N  0.18729193  0.20964236  0.27788379    -0.02000
C900        C  0.17599002  0.19815238  0.27433728     0.00600
C901        C  0.18332772  0.18433147  0.26849803    -0.22300
C902        C  0.19966434  0.18740959  0.26829747    -0.22500
C903        C  0.20183318  0.20303678  0.27402980     0.00400
H904        H  0.17738903  0.17324391  0.26464196     0.14200
H905        H  0.20896923  0.17912568  0.26437879     0.14300
N906        N  0.19215163  0.32656040  0.30446264    -0.02000
C907        C  0.19280240  0.33709089  0.31709683     0.00600
C908        C  0.19460131  0.35274419  0.31153193    -0.22300
C909        C  0.19512960  0.35182136  0.29487234    -0.22500
C910        C  0.19356339  0.33564114  0.29089615     0.00400
H911        H  0.19581754  0.36360958  0.31884381     0.14200
H912        H  0.19646785  0.36183001  0.28657292     0.14300
C913        C  0.18896529  0.25468768  0.27643080    -0.26800
C914        C  0.18529507  0.25887728  0.29256907     0.06800
C915        C  0.18008854  0.24665863  0.30321300     0.26500
C916        C  0.17968955  0.23046498  0.29801742    -0.11300
C917        C  0.18452314  0.22627505  0.28222731    -0.25200
C918        C  0.18869684  0.23855385  0.27133489     0.37300
C919        C  0.18788271  0.27584171  0.29816686     0.06800
F920        F  0.17650149  0.25019709  0.31889398    -0.19000
H921        H  0.17678318  0.22110583  0.30665647     0.16700
F922        F  0.19316963  0.23480154  0.25594203    -0.22700
H923        H  0.19256687  0.26391856  0.26787092     0.18500
C924        C  0.20242709  0.28393991  0.29443588     0.26500
C925        C  0.20416288  0.30044539  0.29764470    -0.11200
C926        C  0.19158897  0.30918022  0.30481534    -0.25300
C927        C  0.17753705  0.30095293  0.30974154     0.37400
C928        C  0.17567450  0.28437166  0.30637024    -0.26900
F929        F  0.21482959  0.27596443  0.28726631    -0.19000
H930        H  0.21507492  0.30666253  0.29385878     0.16700
F931        F  0.16516302  0.30921180  0.31659390    -0.22700
H932        H  0.16438945  0.27841067  0.30939862     0.18500
C933        C  0.27804866  0.23189577  0.27162981    -0.26800
C934        C  0.26805402  0.22423385  0.28312611     0.06800
C935        C  0.27491498  0.21942448  0.29798126     0.26500
C936        C  0.29118178  0.22256635  0.30137123    -0.11300
C937        C  0.30111320  0.23020575  0.28995674    -0.25200
C938        C  0.29447512  0.23483972  0.27498732     0.37300
C939        C  0.25060709  0.22096630  0.27972413     0.06800
F940        F  0.26599898  0.21128146  0.30911347    -0.19000
H941        H  0.29614259  0.21881788  0.31292185     0.16700
F942        F  0.30379223  0.24239816  0.26377823    -0.22700
H943        H  0.27308876  0.23579842  0.26014263     0.18500
C944        C  0.24558991  0.21345432  0.26517420     0.26500
C945        C  0.22947155  0.20853932  0.26312804    -0.11200
C946        C  0.21802859  0.21089112  0.27551053    -0.25300
C947        C  0.22291249  0.21893783  0.28980214     0.37400
C948        C  0.23894644  0.22414171  0.29171873    -0.26900
F949        F  0.25642464  0.20988374  0.25335971    -0.19000
H950        H  0.22604157  0.20229101  0.25203520     0.16700
F951        F  0.21267733  0.22055670  0.30251069    -0.22700
H952        H  0.24242772  0.23006638  0.30296772     0.18500
C953        C  0.34204742  0.21272332  0.24533003    -0.26800
C954        C  0.32808257  0.20369750  0.24117398     0.06800
C955        C  0.31718304  0.19991813  0.25383092     0.26500
C956        C  0.31976471  0.20595145  0.26952417    -0.11300
C957        C  0.33210032  0.21729874  0.27274935    -0.25200
C958        C  0.34357491  0.22022908  0.26051877     0.37300
C959        C  0.32422028  0.19994552  0.22364265     0.06800
F960        F  0.30328158  0.19154866  0.25106158    -0.19000
H961        H  0.31124983  0.20267296  0.27889420     0.16700
F962        F  0.35553027  0.23134941  0.26259267    -0.22700
H963        H  0.35148464  0.21488794  0.23655091     0.18500
C964        C  0.32927033  0.21045493  0.21111676     0.26500
C965        C  0.32435623  0.20778978  0.19514041    -0.11200
C966        C  0.31264318  0.19610754  0.19124108    -0.25300
C967        C  0.30802678  0.18512045  0.20340508     0.37400
C968        C  0.31435849  0.18661465  0.21917342    -0.26900
F969        F  0.33791287  0.22414249  0.21418472    -0.19000
H970        H  0.32921893  0.21554664  0.18590630     0.16700
F971        F  0.29666731  0.17356681  0.20045914    -0.22700
H972        H  0.31089785  0.17759510  0.22795906     0.18500
C973        C  0.20086359  0.31133170  0.21378495    -0.26800
C974        C  0.18858612  0.31840216  0.22322278     0.06800
C975        C  0.17431357  0.32350068  0.21550898     0.26500
C976        C  0.17243389  0.32157383  0.19879745    -0.11300
C977        C  0.18480565  0.31486411  0.18936633    -0.25200
C978        C  0.19900533  0.30956423  0.19695148     0.37300
C979        C  0.19077054  0.32101331  0.24094790     0.06800
F980        F  0.16238408  0.33088578  0.22401438    -0.19000
H981        H  0.16138875  0.32567724  0.19309760     0.16700
F982        F  0.21095020  0.30262175  0.18811902    -0.22700
H983        H  0.21186281  0.30711957  0.21946706     0.18500
C984        C  0.20481978  0.32860126  0.24708653     0.26500
C985        C  0.20585280  0.33284862  0.26350754    -0.11200
C986        C  0.19303252  0.32945296  0.27407149    -0.25300
C987        C  0.17926593  0.32133135  0.26815140     0.37400
C988        C  0.17821205  0.31706441  0.25174295    -0.26900
F989        F  0.21715740  0.33275317  0.23707954    -0.19000
H990        H  0.21652184  0.33916308  0.26793502     0.16700
F991        F  0.16644605  0.31843920  0.27799086    -0.22700
H992        H  0.16735059  0.31106966  0.24735721     0.18500
C993        C  0.29729524  0.28564283  0.19904511    -0.26800
C994        C  0.30348579  0.27883243  0.18462300     0.06800
C995        C  0.31070345  0.28932566  0.17325346     0.26500
C996        C  0.31270807  0.30577114  0.17680385    -0.11300
C997        C  0.30610194  0.31260606  0.19088293    -0.25200
C998        C  0.29852381  0.30235068  0.20211913     0.37300
C999        C  0.30251328  0.26093760  0.18155571     0.06800
F1000       F  0.31565625  0.28383795  0.15854301    -0.19000
H1001       H  0.31950311  0.31325177  0.16845960     0.16700
F1002       F  0.29301496  0.30839110  0.21641041    -0.22700
H1003       H  0.29185696  0.27798240  0.20816484     0.18500
C1004       C  0.31534888  0.25254829  0.17407920     0.26500
C1005       C  0.31364907  0.23621686  0.16984529    -0.11200
C1006       C  0.29991130  0.22736263  0.17442478    -0.25300
C1007       C  0.28732227  0.23542229  0.18243724     0.37400
C1008       C  0.28856377  0.25205500  0.18584409    -0.26900
F1009       F  0.32973384  0.25995169  0.17114167    -0.19000
H1010       H  0.32325162  0.23036602  0.16314495     0.16700
F1011       F  0.27360907  0.22730491  0.18647869    -0.22700
H1012       H  0.27842868  0.25804903  0.19152309     0.18500
C1013       C  0.26753315  0.33406982  0.16361188    -0.26800
C1014       C  0.25547111  0.34409247  0.17025376     0.06800
C1015       C  0.26048077  0.35579435  0.18190158     0.26500
C1016       C  0.27638093  0.35584870  0.18798123    -0.11300
C1017       C  0.28803266  0.34513229  0.18183059    -0.25200
C1018       C  0.28362844  0.33526543  0.16861597     0.37300
C1019       C  0.23791130  0.34120466  0.16588525     0.06800
F1020       F  0.25018234  0.36721347  0.18753301    -0.19000
H1021       H  0.27947347  0.36406717  0.19780036     0.16700
F1022       F  0.29485850  0.32705991  0.16009699    -0.22700
H1023       H  0.26469820  0.32479165  0.15476833     0.18500
C1024       C  0.23334795  0.33374148  0.15104154     0.26500
C1025       C  0.21782974  0.32716717  0.14898692    -0.11200
C1026       C  0.20579350  0.32934040  0.16079532    -0.25300
C1027       C  0.20951115  0.33939939  0.17417804     0.37400
C1028       C  0.22548424  0.34436498  0.17715524    -0.26900
F1029       F  0.24379928  0.33259246  0.13843100    -0.19000
H1030       H  0.21545043  0.31999408  0.13822378     0.16700
F1031       F  0.19782665  0.34444013  0.18450060    -0.22700
H1032       H  0.22796614  0.35019809  0.18865347     0.18500
C1033       C  0.09563145  0.19069253  0.27046247    -0.26800
C1034       C  0.10865730  0.18445636  0.27935944     0.06800
C1035       C  0.10638178  0.17005784  0.28811690     0.26500
C1036       C  0.09147190  0.16196967  0.28771971    -0.11300
C1037       C  0.07847457  0.16810132  0.27872255    -0.25200
C1038       C  0.08062293  0.18270039  0.27023633     0.37300
C1039       C  0.12501839  0.19189479  0.27815708     0.06800
F1040       F  0.11883209  0.16333375  0.29638332    -0.19000
H1041       H  0.09013454  0.15077583  0.29435555     0.16700
F1042       F  0.06852141  0.18881388  0.26102768    -0.22700
H1043       H  0.09719038  0.20162628  0.26344645     0.18500
C1044       C  0.13424212  0.19546338  0.29212779     0.26500
C1045       C  0.15074958  0.19917442  0.29080521    -0.11200
C1046       C  0.15822064  0.19957963  0.27555089    -0.25300
C1047       C  0.14871083  0.19727112  0.26154542     0.37400
C1048       C  0.13223733  0.19357595  0.26285608    -0.26900
F1049       F  0.12748727  0.19446888  0.30708384    -0.19000
H1050       H  0.15790158  0.20040770  0.30175326     0.16700
F1051       F  0.15565727  0.19732819  0.24663441    -0.22700
H1052       H  0.12539137  0.19086695  0.25193655     0.18500
C1053       C  0.02218966  0.98965302  0.26221198    -0.26800
C1054       C  0.00930672  0.99877438  0.26841245     0.06800
C1055       C  0.99563599  0.99054489  0.27441987     0.26500
C1056       C  0.99500056  0.97360452  0.27429808    -0.11300
C1057       C  0.00798005  0.96444969  0.26829266    -0.25200
C1058       C  0.02159184  0.97271180  0.26213876     0.37300
C1059       C  0.01016348  0.01679675  0.26845648     0.06800
F1060       F  0.98307029  0.99885867  0.28086904    -0.19000
H1061       H  0.98443348  0.96765906  0.27927181     0.16700
F1062       F  0.03418209  0.96450665  0.25563063    -0.22700
H1063       H  0.03270223  0.99568345  0.25720303     0.18500
C1064       C  0.02384022  0.02507756  0.27455710     0.26500
C1065       C  0.02445998  0.04202540  0.27458277    -0.11200
C1066       C  0.01145706  0.05113159  0.26862100    -0.25300
C1067       C  0.99788599  0.04280027  0.26225172     0.37400
C1068       C  0.99729020  0.02586269  0.26222463    -0.26900
F1069       F  0.03641530  0.01680142  0.28098514    -0.19000
H1070       H  0.03501038  0.04801519  0.27966930     0.16700
F1071       F  0.98531350  0.05092211  0.25564569    -0.22700
H1072       H  0.98678676  0.01979032  0.25711305     0.18500
C1073       C  0.22652710  0.70560311  0.16342849    -0.26800
C1074       C  0.23741070  0.69315522  0.15956202     0.06800
C1075       C  0.23141163  0.67896988  0.15207897     0.26500
C1076       C  0.21486346  0.67719344  0.14888845    -0.11300
C1077       C  0.20396500  0.68935325  0.15332598    -0.25200
C1078       C  0.20993947  0.70374905  0.16030637     0.37300
C1079       C  0.25475895  0.69456020  0.16426820     0.06800
F1080       F  0.24138146  0.66638873  0.14884216    -0.19000
H1081       H  0.21037004  0.66591118  0.14380532     0.16700
F1082       F  0.19962619  0.71571734  0.16460331    -0.22700
H1083       H  0.23086170  0.71663945  0.16916347     0.18500
C1084       C  0.26718489  0.69164938  0.15296659     0.26500
C1085       C  0.28343410  0.69218025  0.15785431    -0.11200
C1086       C  0.28753505  0.69585333  0.17397474    -0.25300
C1087       C  0.27521463  0.69903755  0.18520202     0.37400
C1088       C  0.25897442  0.69837146  0.18039154    -0.26900
F1089       F  0.26361392  0.68864521  0.13714507    -0.19000
H1090       H  0.29286543  0.69001319  0.14903505     0.16700
F1091       F  0.27896784  0.70256801  0.20087287    -0.22700
H1092       H  0.24964789  0.70056889  0.18932953     0.18500
C1093       C  0.08758106  0.82605041  0.26939381    -0.26800
C1094       C  0.10140349  0.83382724  0.27569935     0.06800
C1095       C  0.09964438  0.84863631  0.28395359     0.26500
C1096       C  0.08440864  0.85573715  0.28542232    -0.11300
C1097       C  0.07056362  0.84816476  0.27887276    -0.25200
C1098       C  0.07224302  0.83302283  0.27112581     0.37300
C1099       C  0.11780267  0.82748879  0.27227412     0.06800
F1100       F  0.11280159  0.85666867  0.28983974    -0.19000
H1101       H  0.08347927  0.86735635  0.29148310     0.16700
F1102       F  0.05926106  0.82539942  0.26439729    -0.22700
H1103       H  0.08873673  0.81472286  0.26283241     0.18500
C1104       C  0.12851423  0.82353978  0.28492125     0.26500
C1105       C  0.14482005  0.82033553  0.28158958    -0.11200
C1106       C  0.15069016  0.82134757  0.26566088    -0.25300
C1107       C  0.13975957  0.82438309  0.25294541     0.37400
C1108       C  0.12343623  0.82723982  0.25623475    -0.26900
F1109       F  0.12336956  0.82359467  0.30054442    -0.19000
H1110       H  0.15309271  0.81831392  0.29157184     0.16700
F1111       F  0.14509971  0.82557459  0.23742888    -0.22700
H1112       H  0.11540113  0.83032734  0.24634205     0.18500
C1113       C  0.17122294  0.69630684  0.20962599    -0.26800
C1114       C  0.18570664  0.69128035  0.21685781     0.06800
C1115       C  0.19792627  0.68483059  0.20687064     0.26500
C1116       C  0.19527970  0.68275899  0.19018600    -0.11300
C1117       C  0.18065013  0.68757622  0.18305003    -0.25200
C1118       C  0.16877933  0.69469595  0.19295801     0.37300
C1119       C  0.18708930  0.69129654  0.23486679     0.06800
F1120       F  0.21232245  0.68026444  0.21325172    -0.19000
H1121       H  0.20448839  0.67685835  0.18303862     0.16700
F1122       F  0.15457747  0.69985098  0.18659216    -0.22700
H1123       H  0.16143788  0.70096288  0.21696070     0.18500
C1124       C  0.18114884  0.70420565  0.24431661     0.26500
C1125       C  0.17977714  0.70273648  0.26116831    -0.11200
C1126       C  0.18493609  0.68866135  0.26908276    -0.25300
C1127       C  0.19198725  0.67626619  0.25964368     0.37400
C1128       C  0.19274881  0.67748339  0.24279384    -0.26900
F1129       F  0.17624227  0.71811665  0.23722854    -0.19000
H1130       H  0.17395558  0.71239375  0.26769921     0.16700
F1131       F  0.19786990  0.66267821  0.26661477    -0.22700
H1132       H  0.19719007  0.66724137  0.23591704     0.18500
C1133       C  0.19567509  0.73942287  0.29008213    -0.26800
C1134       C  0.18070007  0.74740976  0.29024087     0.06800
C1135       C  0.16673271  0.73872401  0.29461158     0.26500
C1136       C  0.16772675  0.72231992  0.29854966    -0.11300
C1137       C  0.18254282  0.71418109  0.29768819    -0.25200
C1138       C  0.19657862  0.72285888  0.29360554     0.37300
C1139       C  0.17960733  0.76460846  0.28530094     0.06800
F1140       F  0.15210915  0.74607097  0.29484528    -0.19000
H1141       H  0.15679773  0.71567961  0.30148274     0.16700
F1142       F  0.21099102  0.71519146  0.29260608    -0.22700
H1143       H  0.20656219  0.74591109  0.28668496     0.18500
C1144       C  0.18785540  0.77678424  0.29401409     0.26500
C1145       C  0.18728853  0.79286923  0.28883662    -0.11200
C1146       C  0.17869588  0.79707809  0.27476517    -0.25300
C1147       C  0.17012014  0.78495449  0.26626688     0.37400
C1148       C  0.17051457  0.76887938  0.27156531    -0.26900
F1149       F  0.19646251  0.77309497  0.30751802    -0.19000
H1150       H  0.19384577  0.80205348  0.29563152     0.16700
F1151       F  0.16215878  0.78850310  0.25233667    -0.22700
H1152       H  0.16415221  0.75963895  0.26463681     0.18500
C1153       C  0.30933348  0.78357300  0.15472538    -0.26800
C1154       C  0.30219843  0.77795528  0.16911646     0.06800
C1155       C  0.29492827  0.78920804  0.17969409     0.26500
C1156       C  0.29478854  0.80566215  0.17584831    -0.11300
C1157       C  0.30183315  0.81115801  0.16142540    -0.25200
C1158       C  0.30903528  0.79998987  0.15082613     0.37300
C1159       C  0.30291758  0.76048649  0.17320765     0.06800
F1160       F  0.28763372  0.78427271  0.19355805    -0.19000
H1161       H  0.28898776  0.81411274  0.18403403     0.16700
F1162       F  0.31611268  0.80502811  0.13687849    -0.22700
H1163       H  0.31536741  0.77525944  0.14657652     0.18500
C1164       C  0.29935070  0.74845060  0.16151328     0.26500
C1165       C  0.30149119  0.73208352  0.16513786    -0.11200
C1166       C  0.30718002  0.72743521  0.18044668    -0.25300
C1167       C  0.31008931  0.73939800  0.19233710     0.37400
C1168       C  0.30801974  0.75573235  0.18871519    -0.26900
F1169       F  0.29406503  0.75251262  0.14648540    -0.19000
H1170       H  0.29947437  0.72312600  0.15569965     0.16700
F1171       F  0.31535508  0.73530747  0.20736852    -0.22700
H1172       H  0.31101545  0.76471048  0.19788936     0.18500
C1173       C  0.27151304  0.81995811  0.27259293    -0.26800
C1174       C  0.26141582  0.80631401  0.27402194     0.06800
C1175       C  0.26827411  0.79127983  0.27769474     0.26500
C1176       C  0.28486433  0.79021781  0.28093191    -0.11300
C1177       C  0.29483158  0.80403338  0.28020337    -0.25200
C1178       C  0.28809314  0.81886195  0.27562759     0.37300
C1179       C  0.24369242  0.80830369  0.27285860     0.06800
F1180       F  0.25879522  0.77790651  0.27921279    -0.19000
H1181       H  0.28984821  0.77874758  0.28469066     0.16700
F1182       F  0.29723926  0.83255026  0.27547268    -0.22700
H1183       H  0.26640288  0.83163423  0.26973636     0.18500
C1184       C  0.23580028  0.81903210  0.28346234     0.26500
C1185       C  0.21945864  0.82250638  0.28124068    -0.11200
C1186       C  0.21069517  0.81515150  0.26860864    -0.25300
C1187       C  0.21829769  0.80381276  0.25848138     0.37400
C1188       C  0.23473812  0.80037586  0.26063874    -0.26900
F1189       F  0.24402054  0.82638748  0.29577094    -0.19000
H1190       H  0.21370468  0.83127347  0.28912309     0.16700
F1191       F  0.21006134  0.79680820  0.24599326    -0.22700
H1192       H  0.24064394  0.79208465  0.25236853     0.18500
C1193       C  0.32113398  0.80937340  0.23485102    -0.26800
C1194       C  0.32558582  0.82535457  0.23120473     0.06800
C1195       C  0.33124547  0.83553435  0.24376557     0.26500
C1196       C  0.33201007  0.82986602  0.25977642    -0.11300
C1197       C  0.32678690  0.81412086  0.26350043    -0.25200
C1198       C  0.32162095  0.80382556  0.25083915     0.37300
C1199       C  0.32299551  0.83148406  0.21451875     0.06800
F1200       F  0.33572883  0.85100863  0.24056725    -0.19000
H1201       H  0.33591132  0.83798123  0.26940230     0.16700
F1202       F  0.31667808  0.78849391  0.25404588    -0.22700
H1203       H  0.31665770  0.80137204  0.22536353     0.18500
C1204       C  0.33060081  0.82414727  0.20116177     0.26500
C1205       C  0.32617119  0.82832441  0.18533708    -0.11200
C1206       C  0.31379145  0.83954173  0.18254562    -0.25300
C1207       C  0.30672727  0.84742756  0.19589593     0.37400
C1208       C  0.31140448  0.84350152  0.21173870    -0.26900
F1209       F  0.34187208  0.81251943  0.20343995    -0.19000
H1210       H  0.33176959  0.82214873  0.17520099     0.16700
F1211       F  0.29433621  0.85785028  0.19367077    -0.22700
H1212       H  0.30523949  0.84911060  0.22187762     0.18500
C1213       C  0.32038215  0.43616441  0.19210280    -0.26800
C1214       C  0.32806631  0.42235252  0.18589693     0.06800
C1215       C  0.34338719  0.42414568  0.17871211     0.26500
C1216       C  0.35092855  0.43937044  0.17807015    -0.11300
C1217       C  0.34336720  0.45320705  0.18445895    -0.39600
C1218       C  0.32786569  0.45142918  0.19137428     0.37300
C1219       C  0.32079015  0.40596453  0.18814951     0.06800
F1220       F  0.35140809  0.41104633  0.17295471    -0.19000
H1221       H  0.36279037  0.44028690  0.17261471     0.16700
F1222       F  0.32018082  0.46424389  0.19812756    -0.22700
H1223       H  0.30863201  0.43507054  0.19778490     0.18500
C1224       C  0.31706144  0.40043992  0.20381596     0.26500
C1225       C  0.31275269  0.38424617  0.20629277    -0.11200
C1226       C  0.31187707  0.37324654  0.19324233    -0.25300
C1227       C  0.31438947  0.37900033  0.17742938     0.37400
C1228       C  0.31890127  0.39521994  0.17493892    -0.26900
F1229       F  0.31894588  0.41032863  0.21691145    -0.19000
H1230       H  0.31111624  0.38000772  0.21859766     0.16700
F1231       F  0.31400507  0.36863924  0.16459185    -0.22700
H1232       H  0.32161556  0.39923245  0.16275480     0.18500
C1233       C  0.31792303  0.60437001  0.18635024    -0.26800
C1234       C  0.32499251  0.61731292  0.17788099     0.06800
C1235       C  0.34024083  0.61504510  0.17067057     0.26500
C1236       C  0.34823529  0.60026247  0.17209761    -0.11300
C1237       C  0.34126479  0.58736361  0.18068350    -0.25200
C1238       C  0.32590425  0.58951781  0.18770375     0.37300
C1239       C  0.31754429  0.63366768  0.17831621     0.06800
F1240       F  0.34787096  0.62739803  0.16299270    -0.19000
H1241       H  0.36001511  0.59896538  0.16655344     0.16700
F1242       F  0.31893773  0.57759967  0.19657648    -0.22700
H1243       H  0.30633055  0.60589405  0.19223282     0.18500
C1244       C  0.31633271  0.64322625  0.16425936     0.26500
C1245       C  0.31301265  0.65980087  0.16556718    -0.11200
C1246       C  0.31072321  0.66698145  0.18084606    -0.25300
C1247       C  0.31023158  0.65712710  0.19465017     0.37400
C1248       C  0.31353699  0.64060622  0.19337116    -0.26900
F1249       F  0.31934271  0.63676541  0.14939594    -0.19000
H1250       H  0.31365554  0.66725054  0.15482205     0.16700
F1251       F  0.30811372  0.66380746  0.20957977    -0.22700
H1252       H  0.31429446  0.63353381  0.20436188     0.18500
C1253       C  0.48412371  0.51026029  0.17802686    -0.26800
C1254       C  0.49270966  0.52362524  0.18428821     0.06800
C1255       C  0.48392400  0.53691694  0.19026715     0.26500
C1256       C  0.46694281  0.53659842  0.19023136    -0.11300
C1257       C  0.45832781  0.52306423  0.18422322    -0.25200
C1258       C  0.46719792  0.50994311  0.17792945     0.37300
C1259       C  0.51075669  0.52355749  0.18433573     0.06800
F1260       F  0.49173652  0.55003470  0.19655365    -0.19000
H1261       H  0.46054858  0.54687903  0.19518742     0.16700
F1262       F  0.45962146  0.49694091  0.17118092    -0.22700
H1263       H  0.49057676  0.50006120  0.17295390     0.18500
C1264       C  0.51935581  0.51026752  0.19044669     0.26500
C1265       C  0.53629037  0.51001494  0.18988925    -0.11200
C1266       C  0.54510949  0.52298746  0.18325710    -0.25300
C1267       C  0.53645770  0.53629087  0.17711668     0.37400
C1268       C  0.51951592  0.53654318  0.17772932    -0.26900
F1269       F  0.51138514  0.49761084  0.19724133    -0.19000
H1270       H  0.54249820  0.49967446  0.19485451     0.16700
F1271       F  0.54422651  0.54883534  0.16993579    -0.22700
H1272       H  0.51319247  0.54676608  0.17264254     0.18500
C1273       C  0.68305122  0.64310740  0.15178542    -0.26800
C1274       C  0.68373814  0.63486396  0.16664234     0.06800
C1275       C  0.68967516  0.64320952  0.18041865     0.26500
C1276       C  0.69328945  0.65980518  0.17958115    -0.11300
C1277       C  0.69100533  0.66829886  0.16507362    -0.25200
C1278       C  0.68646154  0.65968925  0.15102749     0.37300
C1279       C  0.67633714  0.61841008  0.16804704     0.06800
F1280       F  0.69040901  0.63577879  0.19503704    -0.19000
H1281       H  0.69638057  0.66632175  0.19062074     0.16700
F1282       F  0.68391871  0.66761979  0.13688826    -0.22700
H1283       H  0.67882651  0.63691145  0.14093975     0.18500
C1284       C  0.66058516  0.61547428  0.16212978     0.26500
C1285       C  0.65318583  0.60036472  0.16412205    -0.11200
C1286       C  0.66121677  0.58774120  0.17205510    -0.25300
C1287       C  0.67703838  0.59058904  0.17788317     0.37400
C1288       C  0.68446833  0.60578677  0.17590803    -0.26900
F1289       F  0.65203373  0.62742604  0.15493374    -0.19000
H1290       H  0.64105468  0.59859195  0.15944665     0.16700
F1291       F  0.68512097  0.57895573  0.18605105    -0.22700
H1292       H  0.69656831  0.60772880  0.18061465     0.18500
C1293       C  0.74130253  0.69362023  0.15130108    -0.26800
C1294       C  0.75062620  0.70001782  0.16415103     0.06800
C1295       C  0.74287796  0.70385221  0.17888170     0.26500
C1296       C  0.72608948  0.70224282  0.18031310    -0.11300
C1297       C  0.71673942  0.69658209  0.16722191    -0.25200
C1298       C  0.72450082  0.69185993  0.15282846     0.37300
C1299       C  0.76809265  0.70384992  0.16178573     0.06800
F1300       F  0.75151332  0.70946417  0.19179511    -0.19000
H1301       H  0.72024494  0.70593756  0.19146841     0.16700
F1302       F  0.71566349  0.68689577  0.13980992    -0.22700
H1303       H  0.74691769  0.69076091  0.13978704     0.18500
C1304       C  0.77888980  0.69240975  0.15527268     0.26500
C1305       C  0.79531681  0.69634826  0.15333417    -0.11200
C1306       C  0.80120195  0.71167343  0.15792506    -0.25300
C1307       C  0.79039770  0.72316869  0.16409740     0.37400
C1308       C  0.77402599  0.71931632  0.16593182    -0.26900
F1309       F  0.77369460  0.67725688  0.15140565    -0.19000
H1310       H  0.80357065  0.68727059  0.14884523     0.16700
F1311       F  0.79579269  0.73811504  0.16846422    -0.22700
H1312       H  0.76593633  0.72846284  0.17062204     0.18500
C1313       C  0.87635105  0.84527480  0.30094225    -0.26800
C1314       C  0.88580409  0.83649468  0.28990239     0.06800
C1315       C  0.87848395  0.82389851  0.28086335     0.26500
C1316       C  0.86170000  0.82119294  0.28187955    -0.11300
C1317       C  0.85209286  0.83100140  0.29191531    -0.25200
C1318       C  0.85969863  0.84260841  0.30194190     0.37300
C1319       C  0.90263661  0.84203890  0.28665686     0.06800
F1320       F  0.88727481  0.81518092  0.27007041    -0.19000
H1321       H  0.85607661  0.81234228  0.27388739     0.16700
F1322       F  0.85083417  0.85211616  0.31199086    -0.22700
H1323       H  0.88177759  0.85486062  0.30819408     0.18500
C1324       C  0.90542438  0.85805219  0.28177802     0.26500
C1325       C  0.92114763  0.86385912  0.27957301    -0.11200
C1326       C  0.93468852  0.85395761  0.28224037    -0.25300
C1327       C  0.93182357  0.83768146  0.28674170     0.37400
C1328       C  0.91594249  0.83183159  0.28883931    -0.26900
F1329       F  0.89283987  0.86814904  0.27903705    -0.19000
H1330       H  0.92253018  0.87627450  0.27580531     0.16700
F1331       F  0.94420450  0.82738997  0.28944134    -0.22700
H1332       H  0.91404650  0.81942577  0.29257216     0.18500
C1333       C  0.82664538  0.72516164  0.21643034    -0.26800
C1334       C  0.81890277  0.71097177  0.22152191     0.06800
C1335       C  0.81261020  0.70014930  0.20985020     0.26500
C1336       C  0.81476438  0.70314471  0.19330498    -0.11300
C1337       C  0.82315425  0.71701148  0.18815349    -0.25200
C1338       C  0.82882418  0.72816703  0.19990870     0.37300
C1339       C  0.81836018  0.70700317  0.23896127     0.06800
F1340       F  0.80471033  0.68650201  0.21449699    -0.19000
H1341       H  0.81055746  0.69420341  0.18460287     0.16700
F1342       F  0.83677185  0.74184810  0.19545091    -0.22700
H1343       H  0.83151942  0.73363533  0.22528766     0.18500
C1344       C  0.82627302  0.69319545  0.24470208     0.26500
C1345       C  0.82534313  0.68910079  0.26106630    -0.11200
C1346       C  0.81662651  0.69873570  0.27200757    -0.25300
C1347       C  0.80896369  0.71275727  0.26635464     0.37400
C1348       C  0.80998527  0.71692773  0.24993294    -0.26900
F1349       F  0.83492935  0.68369703  0.23446084    -0.19000
H1350       H  0.83130063  0.67824641  0.26521441     0.16700
F1351       F  0.79987473  0.72194306  0.27648036    -0.22700
H1352       H  0.80384246  0.72762486  0.24566329     0.18500
C1353       C  0.83762603  0.74084348  0.29345360    -0.26800
C1354       C  0.82824475  0.75168221  0.30253290     0.06800
C1355       C  0.81682105  0.74551088  0.31352053     0.26500
C1356       C  0.81384268  0.72883008  0.31425627    -0.11300
C1357       C  0.82242567  0.71801953  0.30431080    -0.25200
C1358       C  0.83502228  0.72414404  0.29459232     0.37300
C1359       C  0.82884558  0.76921367  0.29888962     0.06800
F1360       F  0.80765609  0.75567461  0.32258634    -0.19000
H1361       H  0.80411588  0.72446283  0.32185340     0.16700
F1362       F  0.84443301  0.71402394  0.28575563    -0.22700
H1363       H  0.84665242  0.74537338  0.28509820     0.18500
C1364       C  0.83267729  0.78083732  0.31086761     0.26500
C1365       C  0.83177074  0.79738298  0.30730307    -0.11200
C1366       C  0.82667004  0.80248120  0.29191379    -0.25300
C1367       C  0.82323430  0.79087437  0.27987650     0.37400
C1368       C  0.82445925  0.77440033  0.28330662    -0.26900
F1369       F  0.83705285  0.77618271  0.32600748    -0.19000
H1370       H  0.83436242  0.80624199  0.31670626     0.16700
F1371       F  0.81841069  0.79554493  0.26488310    -0.22700
H1372       H  0.82139637  0.76563203  0.27394388     0.18500
C1373       C  0.70487790  0.78751478  0.15787423    -0.26800
C1374       C  0.70936364  0.77917635  0.17193664     0.06800
C1375       C  0.71655130  0.78784231  0.18487764     0.26500
C1376       C  0.71935183  0.80456150  0.18356738    -0.11300
C1377       C  0.71481365  0.81281721  0.16944137    -0.25200
C1378       C  0.70753120  0.80414291  0.15662608     0.37300
C1379       C  0.70638226  0.76147664  0.17273425     0.06800
F1380       F  0.72123249  0.78007786  0.19854740    -0.19000
H1381       H  0.72510561  0.81105689  0.19349663     0.16700
F1382       F  0.70276798  0.81184846  0.14294075    -0.22700
H1383       H  0.69916376  0.78111366  0.14785609     0.18500
C1384       C  0.69643464  0.75481991  0.18481184     0.26500
C1385       C  0.69210393  0.73842078  0.18417156    -0.11200
C1386       C  0.69768182  0.72836966  0.17158417    -0.25300
C1387       C  0.70792646  0.73494828  0.15971970     0.37400
C1388       C  0.71223523  0.75134243  0.16034219    -0.26900
F1389       F  0.69007643  0.76436439  0.19661054    -0.19000
H1390       H  0.68394279  0.73364227  0.19324702     0.16700
F1391       F  0.71277522  0.72589788  0.14686286    -0.22700
H1392       H  0.71973343  0.75629637  0.15080129     0.18500
C1393       C  0.77075683  0.80501045  0.29874929    -0.26800
C1394       C  0.76048829  0.80738387  0.28533174     0.06800
C1395       C  0.76705612  0.81402103  0.27108352     0.26500
C1396       C  0.78327662  0.81899264  0.27069671    -0.11300
C1397       C  0.79326407  0.81732446  0.28438399    -0.25200
C1398       C  0.78696728  0.80997339  0.29833447     0.37300
C1399       C  0.74272894  0.80485119  0.28712201     0.06800
F1400       F  0.75754199  0.81692391  0.25799454    -0.19000
H1401       H  0.78787471  0.82488161  0.25992944     0.16700
F1402       F  0.79602831  0.80890347  0.31202900    -0.22700
H1403       H  0.76599249  0.79997689  0.30987399     0.18500
C1404       C  0.73341232  0.79629330  0.27550082     0.26500
C1405       C  0.71662469  0.79456880  0.27751965    -0.11200
C1406       C  0.70897943  0.80120179  0.29118791    -0.25300
C1407       C  0.71826997  0.80960375  0.30279986     0.37400
C1408       C  0.73490920  0.81148589  0.30071578    -0.26900
F1409       F  0.74056679  0.78919468  0.26250505    -0.19000
H1410       H  0.70962759  0.78785032  0.26858910     0.16700
F1411       F  0.71115738  0.81621859  0.31608455    -0.22700
H1412       H  0.74171261  0.81830766  0.30972109     0.18500
C1413       C  0.67220919  0.81872744  0.24241971    -0.26800
C1414       C  0.68619701  0.82806971  0.23940015     0.06800
C1415       C  0.69668398  0.83130178  0.25262860     0.26500
C1416       C  0.69326299  0.82523702  0.26805196    -0.11300
C1417       C  0.68028391  0.81449344  0.27055400    -0.25200
C1418       C  0.66965092  0.81144600  0.25750421     0.37300
C1419       C  0.69027607  0.83345629  0.22246564     0.06800
F1420       F  0.71085951  0.83940325  0.25065926    -0.19000
H1421       H  0.70135699  0.82837206  0.27790964     0.16700
F1422       F  0.65738021  0.80059525  0.25885791    -0.22700
H1423       H  0.66338760  0.81649432  0.23295632     0.18500
C1424       C  0.68632690  0.82383987  0.20874772     0.26500
C1425       C  0.69146791  0.82833376  0.19326689    -0.11200
C1426       C  0.70225068  0.84133292  0.19110017    -0.25300
C1427       C  0.70560312  0.85140624  0.20456826     0.37400
C1428       C  0.69909830  0.84785542  0.21982948    -0.26900
F1429       F  0.67863425  0.80937793  0.21020414    -0.19000
H1430       H  0.68793428  0.82080188  0.18307202     0.16700
F1431       F  0.71609133  0.86401313  0.20342286    -0.22700
H1432       H  0.70166862  0.85613292  0.22972795     0.18500
C1433       C  0.40698048  0.79873736  0.31457358    -0.26800
C1434       C  0.40404973  0.81093498  0.30320755     0.06800
C1435       C  0.41667881  0.82150768  0.29895803     0.26500
C1436       C  0.43198820  0.81994660  0.30615777    -0.11300
C1437       C  0.43479390  0.80808126  0.31799800    -0.25200
C1438       C  0.42215200  0.79733240  0.32197478     0.37300
C1439       C  0.38740819  0.81314952  0.29697536     0.06800
F1440       F  0.41410674  0.83347962  0.28808267    -0.19000
H1441       H  0.44148716  0.82839469  0.30290447     0.16700
F1442       F  0.42446100  0.78538040  0.33293415    -0.22700
H1443       H  0.39733685  0.79051827  0.31800995     0.18500
C1444       C  0.38074444  0.80243336  0.28540169     0.26500
C1445       C  0.36407698  0.80253315  0.28214028    -0.11200
C1446       C  0.35387917  0.81309428  0.29063238    -0.25300
C1447       C  0.36074753  0.82451064  0.30139965     0.37400
C1448       C  0.37739819  0.82460039  0.30442683    -0.26900
F1449       F  0.39017536  0.79116476  0.27812648    -0.19000
H1450       H  0.35895975  0.79339951  0.27412119     0.16700
F1451       F  0.35113641  0.83464268  0.31003379    -0.22700
H1452       H  0.38231489  0.83283799  0.31348187     0.18500
C1453       C  0.62809137  0.82653549  0.29778748    -0.26800
C1454       C  0.61594573  0.81450233  0.29721978     0.06800
C1455       C  0.62017233  0.79880387  0.29212006     0.26500
C1456       C  0.63634150  0.79494123  0.28924385    -0.11300
C1457       C  0.64860635  0.80662053  0.29111375    -0.25200
C1458       C  0.64431844  0.82264628  0.29475202     0.37300
C1459       C  0.59950358  0.81760779  0.30393451     0.06800
F1460       F  0.60894554  0.78675815  0.29149099    -0.19000
H1461       H  0.63945819  0.78247164  0.28669974     0.16700
F1462       F  0.65593511  0.83412593  0.29699314    -0.22700
H1463       H  0.62513108  0.83875343  0.30148681     0.18500
C1464       C  0.59770594  0.82418009  0.31963200     0.26500
C1465       C  0.58246428  0.82475870  0.32696816    -0.11200
C1466       C  0.56862444  0.81884424  0.31888706    -0.25300
C1467       C  0.57032113  0.81288917  0.30290457     0.37400
C1468       C  0.58558840  0.81232965  0.29556057    -0.26900
F1469       F  0.61081210  0.82914092  0.32832586    -0.19000
H1470       H  0.58157278  0.82954997  0.33918838     0.16700
F1471       F  0.55746884  0.80667998  0.29465780    -0.22700
H1472       H  0.58661678  0.80726210  0.28345712     0.18500
C1473       C  0.51535873  0.79604941  0.49539747    -0.26800
C1474       C  0.50265949  0.80327910  0.48681797     0.06800
C1475       C  0.49015990  0.81066036  0.49562455     0.26500
C1476       C  0.49050926  0.81096449  0.51263912    -0.11300
C1477       C  0.50325144  0.80380363  0.52135416    -0.25200
C1478       C  0.51564831  0.79616285  0.51242690     0.37300
C1479       C  0.50254570  0.80315707  0.46872910     0.06800
F1480       F  0.47781088  0.81799883  0.48775334    -0.19000
H1481       H  0.48083021  0.81706955  0.51894105     0.16700
F1482       F  0.52790874  0.78843037  0.52000390    -0.22700
H1483       H  0.52500686  0.79009480  0.48885893     0.18500
C1484       C  0.51551859  0.80974745  0.45993376     0.26500
C1485       C  0.51520102  0.80983268  0.44292450    -0.11200
C1486       C  0.50201628  0.80322965  0.43419271    -0.25300
C1487       C  0.48912985  0.79636722  0.44310160     0.37400
C1488       C  0.48939864  0.79647350  0.46013665    -0.26900
F1489       F  0.52833075  0.81653644  0.46780938    -0.19000
H1490       H  0.52527412  0.81534162  0.43663994     0.16700
F1491       F  0.47639241  0.78918607  0.43549793    -0.22700
H1492       H  0.47937205  0.79111797  0.46666846     0.18500
C1493       C  0.60008601  0.79752534  0.63816432    -0.26800
C1494       C  0.60477789  0.81053234  0.64821171     0.06800
C1495       C  0.59323130  0.82230292  0.65227763     0.26500
C1496       C  0.57745149  0.82123591  0.64602840    -0.11300
C1497       C  0.57301042  0.80862891  0.63534064    -0.25200
C1498       C  0.58442556  0.79658933  0.63172457     0.37300
C1499       C  0.62207359  0.81244734  0.65293049     0.06800
F1500       F  0.59729108  0.83494834  0.66209175    -0.19000
H1501       H  0.56888647  0.83063319  0.64903655     0.16700
F1502       F  0.58047593  0.78389902  0.62192906    -0.22700
H1503       H  0.60877855  0.78837124  0.63477231     0.18500
C1504       C  0.63068221  0.79967213  0.66008562     0.26500
C1505       C  0.64754396  0.80064908  0.66181181    -0.11200
C1506       C  0.65604014  0.81425599  0.65625456    -0.25300
C1507       C  0.64739482  0.82735146  0.64992819     0.37400
C1508       C  0.63055127  0.82650094  0.64843305    -0.26900
F1509       F  0.62286395  0.78599200  0.66475744    -0.19000
H1510       H  0.65407016  0.79035241  0.66648210     0.16700
F1511       F  0.65536995  0.84057050  0.64429327    -0.22700
H1512       H  0.62423893  0.83641820  0.64275576     0.18500
C1513       C  0.69073006  0.80791197  0.70990422    -0.26800
C1514       C  0.68563543  0.82294552  0.71601750     0.06800
C1515       C  0.67843362  0.83402805  0.70536009     0.26500
C1516       C  0.67722293  0.83043199  0.68875177    -0.11300
C1517       C  0.68328332  0.81584112  0.68257781    -0.25200
C1518       C  0.68954968  0.80437017  0.69333485     0.37300
C1519       C  0.68934995  0.82745355  0.73310552     0.06800
F1520       F  0.67372001  0.84878618  0.71078593    -0.19000
H1521       H  0.67255831  0.83944775  0.68053242     0.16700
F1522       F  0.69515848  0.79003399  0.68763315    -0.22700
H1523       H  0.69615727  0.79913557  0.71792226     0.18500
C1524       C  0.67724858  0.83259942  0.74393070     0.26500
C1525       C  0.68112307  0.83608903  0.76018743    -0.11200
C1526       C  0.69703568  0.83441195  0.76582457    -0.25300
C1527       C  0.70915132  0.82971611  0.75490714     0.37400
C1528       C  0.70534116  0.82629796  0.73872386    -0.26900
F1529       F  0.66159411  0.83333283  0.73903464    -0.19000
H1530       H  0.67160036  0.83922211  0.76860875     0.16700
F1531       F  0.72456687  0.82773761  0.76016818    -0.22700
H1532       H  0.71486697  0.82246413  0.73058738     0.18500
C1533       C  0.77159684  0.83878139  0.67648248    -0.26800
C1534       C  0.76471672  0.82381305  0.68068779     0.06800
C1535       C  0.77420522  0.81249985  0.68905252     0.26500
C1536       C  0.79025477  0.81621231  0.69317641    -0.11300
C1537       C  0.79706260  0.83120327  0.68896623    -0.25200
C1538       C  0.78759043  0.84248846  0.68061516     0.37300
C1539       C  0.74775254  0.82010016  0.67601214     0.06800
F1540       F  0.76783099  0.79805073  0.69357600    -0.19000
H1541       H  0.79732204  0.80746241  0.69981014     0.16700
F1542       F  0.79395805  0.85694813  0.67608343    -0.22700
H1543       H  0.76460151  0.84755372  0.66979832     0.18500
C1544       C  0.73522733  0.83087045  0.67991922     0.26500
C1545       C  0.71945984  0.82787748  0.67444632    -0.11200
C1546       C  0.71591366  0.81417981  0.66490206    -0.25300
C1547       C  0.72837212  0.80327693  0.66119908     0.37400
C1548       C  0.74412145  0.80617079  0.66682372    -0.26900
F1549       F  0.73828834  0.84439170  0.68887681    -0.19000
H1550       H  0.71014441  0.83661761  0.67714899     0.16700
F1551       F  0.72533697  0.78992599  0.65198170    -0.22700
H1552       H  0.75360966  0.79779889  0.66355442     0.18500
C1553       C  0.83019266  0.75204889  0.65799305    -0.26800
C1554       C  0.81864825  0.76283517  0.66412886     0.06800
C1555       C  0.80267885  0.75743126  0.66640088     0.26500
C1556       C  0.79858466  0.74123777  0.66350775    -0.11300
C1557       C  0.81026983  0.73022853  0.65813751    -0.25200
C1558       C  0.82599004  0.73586224  0.65481044     0.37300
C1559       C  0.82330365  0.77939129  0.66929850     0.06800
F1560       F  0.79132447  0.76758371  0.67246193    -0.19000
H1561       H  0.78649516  0.73700990  0.66631563     0.16700
F1562       F  0.83760992  0.72537510  0.65004192    -0.22700
H1563       H  0.84255990  0.75604151  0.65621713     0.18500
C1564       C  0.83253334  0.78191906  0.68346128     0.26500
C1565       C  0.83455091  0.79756765  0.68981655    -0.11200
C1566       C  0.82747681  0.81085690  0.68208907    -0.25300
C1567       C  0.81928195  0.80839838  0.66729015     0.37400
C1568       C  0.81702298  0.79276056  0.66109532    -0.26900
F1569       F  0.83867468  0.76917009  0.69168537    -0.19000
H1570       H  0.84090610  0.79924791  0.70121365     0.16700
F1571       F  0.81304794  0.82110822  0.65910591    -0.22700
H1572       H  0.80997487  0.79101266  0.65011822     0.18500
C1573       C  0.80039700  0.70941635  0.75095282    -0.26800
C1574       C  0.80171516  0.72289654  0.74072100     0.06800
C1575       C  0.80510821  0.73815674  0.74759571     0.26500
C1576       C  0.80767960  0.73971224  0.76433199    -0.11300
C1577       C  0.80685983  0.72612503  0.77447091    -0.25200
C1578       C  0.80300105  0.71096677  0.76766026     0.37300
C1579       C  0.80090726  0.72054001  0.72287381     0.06800
F1580       F  0.80621951  0.75147385  0.73809820    -0.19000
H1581       H  0.81076662  0.75147964  0.76935483     0.16700
F1582       F  0.80309368  0.69744109  0.77688778    -0.22700
H1583       H  0.79816553  0.69748747  0.74587370     0.18500
C1584       C  0.78806850  0.71182085  0.71574071     0.26500
C1585       C  0.78854510  0.70766354  0.69928974    -0.11200
C1586       C  0.80185000  0.71198646  0.68964022    -0.25300
C1587       C  0.81450931  0.72111077  0.69666528     0.37400
C1588       C  0.81391036  0.72548891  0.71309567    -0.26900
F1589       F  0.77526315  0.70694928  0.72479569    -0.19000
H1590       H  0.77869732  0.70057590  0.69416066     0.16700
F1591       F  0.82807545  0.72459485  0.68814436    -0.22700
H1592       H  0.82410633  0.73189387  0.71842859     0.18500
C1593       C  0.68675252  0.74609954  0.76551376    -0.26800
C1594       C  0.69625740  0.75288952  0.77797562     0.06800
C1595       C  0.70192606  0.74284473  0.79044978     0.26500
C1596       C  0.69769708  0.72645596  0.79067321    -0.11300
C1597       C  0.68796402  0.71969258  0.77836580    -0.25200
C1598       C  0.68266445  0.72965355  0.76565114     0.37300
C1599       C  0.69871899  0.77064694  0.77893693     0.06800
F1600       F  0.71063319  0.74908095  0.80302647    -0.19000
H1601       H  0.70144683  0.71924852  0.80090856     0.16700
F1602       F  0.67330877  0.72354403  0.75348793    -0.22700
H1603       H  0.68222185  0.75364065  0.75583461     0.18500
C1604       C  0.71417588  0.77741465  0.78151549     0.26500
C1605       C  0.71588249  0.79393925  0.78492632    -0.11200
C1606       C  0.70227449  0.80394998  0.78547941    -0.25300
C1607       C  0.68695310  0.79740375  0.78200190     0.37400
C1608       C  0.68521484  0.78087065  0.77873470    -0.26900
F1609       F  0.72754501  0.76798899  0.78107802    -0.19000
H1610       H  0.72778096  0.79888315  0.78752702     0.16700
F1611       F  0.67355939  0.80674950  0.78295017    -0.22700
H1612       H  0.67319394  0.77589264  0.77689343     0.18500
C1613       C  0.73458098  0.69992200  0.78052742    -0.26800
C1614       C  0.74031070  0.69714568  0.79630226     0.06800
C1615       C  0.73001795  0.68960118  0.80759094     0.26500
C1616       C  0.71391370  0.68598226  0.80337507    -0.11300
C1617       C  0.70796043  0.68983112  0.78789791    -0.25200
C1618       C  0.71863617  0.69620587  0.77631301     0.37300
C1619       C  0.75655314  0.70345048  0.80089111     0.06800
F1620       F  0.73515921  0.68680918  0.82296303    -0.19000
H1621       H  0.70580639  0.68120014  0.81248487     0.16700
F1622       F  0.71330903  0.69972765  0.76116271    -0.22700
H1623       H  0.74236867  0.70551519  0.77158652     0.18500
C1624       C  0.76888057  0.69323445  0.80649942     0.26500
C1625       C  0.78466840  0.69927897  0.80865025    -0.11200
C1626       C  0.78829879  0.71551763  0.80520456    -0.25300
C1627       C  0.77579180  0.72585313  0.80043453     0.37400
C1628       C  0.76010475  0.71986954  0.79830022    -0.26900
F1629       F  0.76590224  0.67726230  0.80886965    -0.19000
H1630       H  0.79422401  0.69111152  0.81209260     0.16700
F1631       F  0.77893911  0.74166132  0.79731751    -0.22700
H1632       H  0.75075341  0.72798270  0.79414086     0.18500
C1633       C  0.24701048  0.69327358  0.79973750    -0.26800
C1634       C  0.25807000  0.70501546  0.79430445     0.06800
C1635       C  0.25251445  0.72066428  0.79085834     0.26500
C1636       C  0.23616415  0.72435785  0.79248466    -0.11300
C1637       C  0.22503883  0.71258212  0.79757459    -0.25200
C1638       C  0.23056234  0.69699549  0.80129503     0.37300
C1639       C  0.27538926  0.70114849  0.79207684     0.06800
F1640       F  0.26295360  0.73241849  0.78600841    -0.19000
H1641       H  0.23205083  0.73639860  0.78954100     0.16700
F1642       F  0.21995160  0.68519072  0.80552154    -0.22700
H1643       H  0.25105555  0.68112707  0.80233154     0.18500
C1644       C  0.28491913  0.69585716  0.80514729     0.26500
C1645       C  0.30175812  0.69502857  0.80355463    -0.11200
C1646       C  0.30920679  0.69948628  0.78896515    -0.25300
C1647       C  0.29959253  0.70349663  0.77555561     0.37400
C1648       C  0.28281808  0.70432285  0.77711381    -0.26900
F1649       F  0.27809692  0.69274325  0.81976744    -0.19000
H1650       H  0.30908370  0.69199517  0.81399452     0.16700
F1651       F  0.30656808  0.70738890  0.76120162    -0.22700
H1652       H  0.27564592  0.70813427  0.76682340     0.18500
C1653       C  0.29711670  0.78869820  0.78989189    -0.26800
C1654       C  0.31234162  0.78279518  0.78528099     0.06800
C1655       C  0.32519988  0.79392720  0.78329785     0.26500
C1656       C  0.32294222  0.81040364  0.78643296    -0.11300
C1657       C  0.30795731  0.81609189  0.79179071    -0.25200
C1658       C  0.29497823  0.80514646  0.79331409     0.37300
C1659       C  0.31519381  0.76505609  0.78380817     0.06800
F1660       F  0.34026967  0.78879225  0.77943824    -0.19000
H1661       H  0.33319564  0.81855619  0.78562956     0.16700
F1662       F  0.28030685  0.81033610  0.79844873    -0.22700
H1663       H  0.28694356  0.78050458  0.79123274     0.18500
C1664       C  0.30986584  0.75429815  0.79594153     0.26500
C1665       C  0.31493802  0.73817048  0.79584755    -0.11200
C1666       C  0.32547171  0.73253552  0.78379609    -0.25300
C1667       C  0.32991626  0.74291736  0.77112337     0.37400
C1668       C  0.32464778  0.75894783  0.77103801    -0.26900
F1669       F  0.30085304  0.75961725  0.80861506    -0.19000
H1670       H  0.31153182  0.73040397  0.80582190     0.16700
F1671       F  0.33984641  0.73769134  0.75912464    -0.22700
H1672       H  0.32851880  0.76679103  0.76129492     0.18500
C1673       C  0.38491064  0.84808725  0.66113262    -0.26800
C1674       C  0.39290878  0.83322555  0.65926707     0.06800
C1675       C  0.38409952  0.81881623  0.66174148     0.26500
C1676       C  0.36738810  0.81931279  0.66447273    -0.11300
C1677       C  0.35918677  0.83412028  0.66483102    -0.25200
C1678       C  0.36817704  0.84854649  0.66382519     0.37300
C1679       C  0.40960472  0.83267482  0.65248866     0.06800
F1680       F  0.39127421  0.80421917  0.65975683    -0.19000
H1681       H  0.36059982  0.80805956  0.66474307     0.16700
F1682       F  0.36053973  0.86302123  0.66382875    -0.22700
H1683       H  0.39145433  0.85934062  0.65942575     0.18500
C1684       C  0.41308045  0.84025601  0.63762907     0.26500
C1685       C  0.42806483  0.83804582  0.63009364    -0.11200
C1686       C  0.44005167  0.82850353  0.63729709    -0.25300
C1687       C  0.43685522  0.82143824  0.65247946     0.37400
C1688       C  0.42171826  0.82340896  0.65990148    -0.26900
F1689       F  0.40167349  0.84913087  0.62993720    -0.19000
H1690       H  0.43024453  0.84368521  0.61846734     0.16700
F1691       F  0.44799476  0.81189365  0.65972324    -0.22700
H1692       H  0.41932508  0.81742489  0.67130822     0.18500
C1693       C  0.32087006  0.82524382  0.71458027    -0.26800
C1694       C  0.32383175  0.84054902  0.72150055     0.06800
C1695       C  0.32985847  0.85304466  0.71169886     0.26500
C1696       C  0.33252457  0.85031284  0.69512296    -0.11300
C1697       C  0.32909524  0.83514967  0.68811917    -0.25200
C1698       C  0.32350141  0.82254223  0.69801125     0.37300
C1699       C  0.32028838  0.84344058  0.73886816     0.06800
F1700       F  0.33237419  0.86806072  0.71800991    -0.19000
H1701       H  0.33645404  0.86023100  0.68754495     0.16700
F1702       F  0.32016529  0.80778380  0.69147753    -0.22700
H1703       H  0.31629542  0.81546584  0.72199942     0.18500
C1704       C  0.30425996  0.84324637  0.74449768     0.26500
C1705       C  0.30105451  0.84505110  0.76107341    -0.11200
C1706       C  0.31374502  0.84701334  0.77224308    -0.25300
C1707       C  0.32974669  0.84747208  0.76661461     0.37400
C1708       C  0.33297313  0.84582166  0.75000224    -0.26900
F1709       F  0.29175602  0.84114657  0.73397192    -0.19000
H1710       H  0.28868994  0.84444848  0.76533376     0.16700
F1711       F  0.34223206  0.84869420  0.77726085    -0.22700
H1712       H  0.34539284  0.84586449  0.74585968     0.18500
C1713       C  0.24102285  0.82066933  0.69084468    -0.26800
C1714       C  0.24776872  0.82775449  0.67697251     0.06800
C1715       C  0.23763887  0.83549075  0.66578361     0.26500
C1716       C  0.22106309  0.83667813  0.66878536    -0.11300
C1717       C  0.21434617  0.82989830  0.68279627    -0.25200
C1718       C  0.22436969  0.82169150  0.69373962     0.37300
C1719       C  0.26541130  0.82758371  0.67432508     0.06800
F1720       F  0.24392025  0.84250892  0.65233070    -0.19000
H1721       H  0.21354426  0.84341814  0.66047934     0.16700
F1722       F  0.21813145  0.81527240  0.70750828    -0.22700
H1723       H  0.24870710  0.81464408  0.69954843     0.18500
C1724       C  0.27559791  0.83864551  0.68246003     0.26500
C1725       C  0.29206260  0.83956804  0.67854366    -0.11200
C1726       C  0.29864059  0.82926374  0.66666508    -0.25300
C1727       C  0.28841340  0.81782348  0.65897842     0.37400
C1728       C  0.27195405  0.81711062  0.66271291    -0.26900
F1729       F  0.26945934  0.84901371  0.69366138    -0.19000
H1730       H  0.29946236  0.84876733  0.68435203     0.16700
F1731       F  0.29430421  0.80736054  0.64773136    -0.22700
H1732       H  0.26422554  0.80852066  0.65636229     0.18500
C1733       C  0.22985168  0.71592856  0.71043290    -0.26800
C1734       C  0.21429564  0.71880419  0.71652586     0.06800
C1735       C  0.20107690  0.71891529  0.70577972     0.26500
C1736       C  0.20337538  0.71561100  0.68931827    -0.11300
C1737       C  0.21886933  0.71240631  0.68325972    -0.25200
C1738       C  0.23215466  0.71274715  0.69392883     0.37300
C1739       C  0.21173874  0.72046483  0.73419609     0.06800
F1740       F  0.18582549  0.72121891  0.71134953    -0.19000
H1741       H  0.19289645  0.71471461  0.68149449     0.16700
F1742       F  0.24731358  0.70979225  0.68843223    -0.22700
H1743       H  0.24017992  0.71587386  0.71854341     0.18500
C1744       C  0.21674583  0.70817408  0.74473513     0.26500
C1745       C  0.21322040  0.70912702  0.76126392    -0.11200
C1746       C  0.20483925  0.72243243  0.76764102    -0.25300
C1747       C  0.20013542  0.73491623  0.75711332     0.37400
C1748       C  0.20354062  0.73388435  0.74052774    -0.26900
F1749       F  0.22425034  0.69480092  0.73889760    -0.19000
H1750       H  0.21642344  0.69905500  0.76891479     0.16700
F1751       F  0.19212482  0.74804411  0.76281522    -0.22700
H1752       H  0.19964598  0.74349223  0.73257169     0.18500
C1753       C  0.21242268  0.75915844  0.65633576    -0.26800
C1754       C  0.19587487  0.76177445  0.65894642     0.06800
C1755       C  0.18504210  0.74862605  0.65770734     0.26500
C1756       C  0.19082114  0.73302272  0.65454894    -0.11300
C1757       C  0.20746001  0.73032358  0.65294856    -0.25200
C1758       C  0.21819381  0.74353964  0.65349622     0.37300
C1759       C  0.19035607  0.77800271  0.66418931     0.06800
F1760       F  0.16896687  0.75082882  0.66001510    -0.19000
H1761       H  0.18243870  0.72291667  0.65430387     0.16700
F1762       F  0.23434841  0.74113198  0.65212408    -0.22700
H1763       H  0.22095948  0.76912017  0.65731047     0.18500
C1764       C  0.18373121  0.78030837  0.67973822     0.26500
C1765       C  0.18055987  0.79594449  0.68548671    -0.11200
C1766       C  0.18400706  0.80947111  0.67588029    -0.25300
C1767       C  0.18987085  0.80712859  0.66006399     0.37400
C1768       C  0.19312151  0.79151204  0.65431444    -0.26900
F1769       F  0.18145311  0.76754535  0.68978297    -0.19000
H1770       H  0.17633620  0.79760453  0.69780978     0.16700
F1771       F  0.19291891  0.82000801  0.65041004    -0.22700
H1772       H  0.19821210  0.78996472  0.64230987     0.18500
C1773       C  0.33503820  0.61001179  0.79323955    -0.26800
C1774       C  0.34551693  0.62308326  0.79032756     0.06800
C1775       C  0.36139837  0.61998901  0.78531885     0.26500
C1776       C  0.36683154  0.60413160  0.78358432    -0.11300
C1777       C  0.35664026  0.59087134  0.78692997    -0.25200
C1778       C  0.34051877  0.59401231  0.79164123     0.37300
C1779       C  0.34040849  0.64004614  0.79292664     0.06800
F1780       F  0.37170167  0.63240318  0.78206111    -0.19000
H1781       H  0.37913670  0.60232739  0.77959339     0.16700
F1782       F  0.33017241  0.58177544  0.79527414    -0.22700
H1783       H  0.32274935  0.61220852  0.79714917     0.18500
C1784       C  0.32960282  0.64760636  0.78222699     0.26500
C1785       C  0.32776622  0.66448026  0.78268321    -0.11200
C1786       C  0.33669963  0.67393971  0.79379534    -0.25300
C1787       C  0.34647204  0.66616149  0.80531436     0.37400
C1788       C  0.34829469  0.64938794  0.80484270    -0.26900
F1789       F  0.32193519  0.63887326  0.77048514    -0.19000
H1790       H  0.32036241  0.67022011  0.77355335     0.16700
F1791       F  0.35499966  0.67489592  0.81646245    -0.22700
H1792       H  0.35660059  0.64374367  0.81323350     0.18500
C1793       C  0.68459795  0.59719631  0.79841011    -0.26800
C1794       C  0.67388087  0.61010969  0.79623620     0.06800
C1795       C  0.65742335  0.60669255  0.79363440     0.26500
C1796       C  0.65172268  0.59079089  0.79369433    -0.11300
C1797       C  0.66219051  0.57773154  0.79641786    -0.25200
C1798       C  0.67884227  0.58112410  0.79860226     0.37300
C1799       C  0.67945877  0.62723414  0.79657305     0.06800
F1800       F  0.64679455  0.61880993  0.79081216    -0.19000
H1801       H  0.63897241  0.58882635  0.79147581     0.16700
F1802       F  0.68953433  0.56908818  0.80136374    -0.22700
H1803       H  0.69735595  0.59959114  0.80031515     0.18500
C1804       C  0.67207561  0.63828583  0.80721168     0.26500
C1805       C  0.67393537  0.65489264  0.80487289    -0.11200
C1806       C  0.68326089  0.66082582  0.79199665    -0.25300
C1807       C  0.69202647  0.64987279  0.78237829     0.37400
C1808       C  0.69013460  0.63312496  0.78469690    -0.26900
F1809       F  0.66200220  0.63300398  0.81906677    -0.19000
H1810       H  0.66703786  0.66315592  0.81235999     0.16700
F1811       F  0.70096642  0.65526644  0.76970557    -0.22700
H1812       H  0.69593225  0.62480146  0.77638163     0.18500
C1813       C  0.52458230  0.49304435  0.78856981    -0.26800
C1814       C  0.51693651  0.50787152  0.78556894     0.06800
C1815       C  0.52665876  0.52180187  0.78394359     0.26500
C1816       C  0.54342786  0.52102224  0.78599157    -0.11300
C1817       C  0.55113943  0.50634018  0.78960823    -0.25200
C1818       C  0.54144956  0.49220845  0.79048857     0.37300
C1819       C  0.49889944  0.50904707  0.78483210     0.06800
F1820       F  0.51995996  0.53626255  0.78023045    -0.19000
H1821       H  0.55031570  0.53209462  0.78470193     0.16700
F1822       F  0.54802806  0.47759197  0.79365122    -0.22700
H1823       H  0.51744147  0.48211211  0.78993866     0.18500
C1824       C  0.48938411  0.49808744  0.77568316     0.26500
C1825       C  0.47251890  0.49989828  0.77484756    -0.11200
C1826       C  0.46474635  0.51267224  0.78302784    -0.25300
C1827       C  0.47426075  0.52332627  0.79251553     0.37400
C1828       C  0.49104239  0.52145719  0.79341260    -0.26900
F1829       F  0.49638432  0.48594454  0.76711463    -0.19000
H1830       H  0.46558052  0.49147375  0.76746109     0.16700
F1831       F  0.46739670  0.53534584  0.80134070    -0.22700
H1832       H  0.49794458  0.52974421  0.80099758     0.18500
C1833       C  0.30931352  0.10381447  0.16207399    -0.26800
C1834       C  0.31422278  0.11778054  0.15371030     0.06800
C1835       C  0.32130841  0.11598119  0.13831410     0.26500
C1836       C  0.32318570  0.10062746  0.13138147    -0.11300
C1837       C  0.31806034  0.08662239  0.13955177    -0.25200
C1838       C  0.31124960  0.08837332  0.15514175     0.37300
C1839       C  0.31098487  0.13425885  0.16036156     0.06800
F1840       F  0.32576295  0.12914748  0.12959362    -0.19000
H1841       H  0.32857068  0.09976230  0.11945419     0.16700
F1842       F  0.30580402  0.07531122  0.16343276    -0.22700
H1843       H  0.30377153  0.10489190  0.17392212     0.18500
C1844       C  0.29516241  0.13883061  0.16451425     0.26500
C1845       C  0.29162951  0.15506437  0.16778672    -0.11200
C1846       C  0.30380115  0.16699285  0.16735665    -0.25300
C1847       C  0.31980711  0.16230476  0.16436469     0.37400
C1848       C  0.32333734  0.14606988  0.16085878    -0.26900
F1849       F  0.28286257  0.12787564  0.16406494    -0.19000
H1850       H  0.27917432  0.15850077  0.16980800     0.16700
F1851       F  0.33174128  0.17360007  0.16335173    -0.22700
H1852       H  0.33562335  0.14282827  0.15777514     0.18500
C1853       C  0.32924582  0.92248595  0.13855728    -0.26800
C1854       C  0.32138144  0.92075395  0.15352817     0.06800
C1855       C  0.31606831  0.93474356  0.16169061     0.26500
C1856       C  0.31772527  0.94999948  0.15445796    -0.11300
C1857       C  0.32464833  0.95158234  0.13894765    -0.25200
C1858       C  0.33089758  0.93766119  0.13133315     0.37300
C1859       C  0.31731241  0.90420166  0.15933443     0.06800
F1860       F  0.30900291  0.93361859  0.17649446    -0.19000
H1861       H  0.31300845  0.96048350  0.16074640     0.16700
F1862       F  0.33854538  0.93860400  0.11682514    -0.22700
H1863       H  0.33352475  0.91192500  0.13205525     0.18500
C1864       C  0.30106903  0.89975973  0.16197024     0.26500
C1865       C  0.29671341  0.88344512  0.16329717    -0.11200
C1866       C  0.30843068  0.87130168  0.16229247    -0.25300
C1867       C  0.32479235  0.87572933  0.16102806     0.37400
C1868       C  0.32917530  0.89206857  0.15949882    -0.26900
F1869       F  0.28918841  0.91099208  0.16151480    -0.19000
H1870       H  0.28401634  0.88019965  0.16393711     0.16700
F1871       F  0.33631280  0.86420641  0.15950677    -0.22700
H1872       H  0.34173776  0.89518266  0.15740454     0.18500
C1873       C  0.32773245  0.92880514  0.81957252    -0.26800
C1874       C  0.31743027  0.92669923  0.80614317     0.06800
C1875       C  0.30900404  0.94012406  0.80016181     0.26500
C1876       C  0.31074895  0.95530915  0.80766474    -0.11300
C1877       C  0.32058886  0.95727534  0.82149432    -0.25200
C1878       C  0.32923224  0.94387387  0.82727046     0.37300
C1879       C  0.31419359  0.91010598  0.79990621     0.06800
F1880       F  0.29890680  0.93848113  0.78723897    -0.19000
H1881       H  0.30393462  0.96541295  0.80300130     0.16700
F1882       F  0.33915980  0.94529552  0.84034621    -0.22700
H1883       H  0.33416622  0.91857328  0.82450981     0.18500
C1884       C  0.32690692  0.89985481  0.79523162     0.26500
C1885       C  0.32413709  0.88320429  0.79315760    -0.11200
C1886       C  0.30870660  0.87659289  0.79583693    -0.25300
C1887       C  0.29578103  0.88706685  0.79917005     0.37400
C1888       C  0.29850732  0.90367333  0.80107521    -0.26900
F1889       F  0.34215803  0.90580318  0.79367315    -0.19000
H1890       H  0.33431314  0.87537026  0.79090267     0.16700
F1891       F  0.28072558  0.88103913  0.80189610    -0.22700
H1892       H  0.28856207  0.91131805  0.80475145     0.18500
C1893       C  0.30702515  0.03482527  0.96325800    -0.26800
C1894       C  0.31568609  0.02261418  0.97121950     0.06800
C1895       C  0.32384025  0.01104389  0.96180048     0.26500
C1896       C  0.32346860  0.01177783  0.94483941    -0.11300
C1897       C  0.31496142  0.02404491  0.93678012    -0.25200
C1898       C  0.30657889  0.03553239  0.94622221     0.37300
C1899       C  0.31637331  0.02198160  0.98928769     0.06800
F1900       F  0.33262718  0.99928663  0.96902166    -0.19000
H1901       H  0.33018496  0.00285042  0.93801696     0.16700
F1902       F  0.29760549  0.04718090  0.93906616    -0.22700
H1903       H  0.30045744  0.04373890  0.97026683     0.18500
C1904       C  0.32197139  0.03529853  0.99843931     0.26500
C1905       C  0.32311378  0.03435828  0.01539138    -0.11200
C1906       C  0.31865823  0.02015292  0.02367269    -0.25300
C1907       C  0.31292664  0.00685350  0.01443901     0.37400
C1908       C  0.31186825  0.00780033  0.99747693    -0.26900
F1909       F  0.32682395  0.04906817  0.99094274    -0.19000
H1910       H  0.32773526  0.04476116  0.02200522     0.16700
F1911       F  0.30790748  0.99304127  0.02171101    -0.22700
H1912       H  0.30737468  0.99743425  0.99068963     0.18500
C1913       C  0.69638932  0.18916358  0.24374880    -0.26800
C1914       C  0.69262104  0.20109466  0.23235872     0.06800
C1915       C  0.68594129  0.21577939  0.23764137     0.26500
C1916       C  0.68357107  0.21868389  0.25419090    -0.11300
C1917       C  0.68809863  0.20711045  0.26566437    -0.25200
C1918       C  0.69422160  0.19217477  0.26034256     0.37300
C1919       C  0.69668974  0.19879496  0.21509430     0.06800
F1920       F  0.68229719  0.22750903  0.22680082    -0.19000
H1921       H  0.67903508  0.23030631  0.25816406     0.16700
F1922       F  0.69855669  0.18077246  0.27125860    -0.22700
H1923       H  0.70155498  0.17779427  0.23981517     0.18500
C1924       C  0.71047925  0.20634875  0.20865745     0.26500
C1925       C  0.71352192  0.20559148  0.19200904    -0.11200
C1926       C  0.70272448  0.19754575  0.18149940    -0.25300
C1927       C  0.68916058  0.18956589  0.18803574     0.37400
C1928       C  0.68624738  0.19011752  0.20476559    -0.26900
F1929       F  0.72069224  0.21489341  0.21843798    -0.19000
H1930       H  0.72398780  0.21182725  0.18716387     0.16700
F1931       F  0.67813766  0.18227839  0.17816516    -0.22700
H1932       H  0.67547776  0.18439106  0.20958324     0.18500
C1933       C  0.67828236  0.39819948  0.20156421    -0.26800
C1934       C  0.67911580  0.40563338  0.18634786     0.06800
C1935       C  0.68373489  0.39634297  0.17276280     0.26500
C1936       C  0.68609464  0.37961871  0.17420094    -0.11300
C1937       C  0.68379580  0.37197405  0.18918172    -0.25200
C1938       C  0.68052892  0.38153001  0.20299151     0.37300
C1939       C  0.67307013  0.42239659  0.18453320     0.06800
F1940       F  0.68512633  0.40332225  0.15796887    -0.19000
H1941       H  0.68849053  0.37251281  0.16339762     0.16700
F1942       F  0.67850112  0.37456578  0.21773335    -0.22700
H1943       H  0.67479699  0.40512551  0.21218380     0.18500
C1944       C  0.65956751  0.42536527  0.17461445     0.26500
C1945       C  0.65260922  0.44071793  0.17424404    -0.11200
C1946       C  0.65906311  0.45349867  0.18356059    -0.25300
C1947       C  0.67278849  0.45066367  0.19325231     0.37400
C1948       C  0.67959117  0.43516554  0.19386518    -0.26900
F1949       F  0.65259850  0.41319793  0.16587624    -0.19000
H1950       H  0.64204934  0.44260205  0.16670759     0.16700
F1951       F  0.67911399  0.46261958  0.20273517    -0.22700
H1952       H  0.68981507  0.43305079  0.20179341     0.18500
C1953       C  0.71406440  0.25809606  0.16213364    -0.26800
C1954       C  0.70112568  0.26225098  0.17227256     0.06800
C1955       C  0.69101718  0.24991945  0.17827925     0.26500
C1956       C  0.69324867  0.23386242  0.17342342    -0.11300
C1957       C  0.70573736  0.22975536  0.16268521    -0.25200
C1958       C  0.71634937  0.24199919  0.15732544     0.37300
C1959       C  0.69707968  0.27946677  0.17514084     0.06800
F1960       F  0.67867109  0.25350135  0.18848783    -0.19000
H1961       H  0.68474714  0.22476666  0.17752991     0.16700
F1962       F  0.72870843  0.23845303  0.14712741    -0.22700
H1963       H  0.72195389  0.26741866  0.15734499     0.18500
C1964       C  0.70833957  0.29052730  0.18177065     0.26500
C1965       C  0.70381989  0.30658935  0.18480036    -0.11200
C1966       C  0.68814814  0.31186980  0.18096655    -0.25300
C1967       C  0.67715395  0.30090540  0.17382441     0.37400
C1968       C  0.68159262  0.28490066  0.17098391    -0.26900
F1969       F  0.72343685  0.28566079  0.18587918    -0.19000
H1970       H  0.71240403  0.31476398  0.19054737     0.16700
F1971       F  0.66206437  0.30568785  0.16957611    -0.22700
H1972       H  0.67287639  0.27667150  0.16550279     0.18500
C1973       C  0.73480928  0.34876574  0.17665577    -0.26800
C1974       C  0.73735270  0.33920879  0.16274767     0.06800
C1975       C  0.72390833  0.33345560  0.15393582     0.26500
C1976       C  0.70826288  0.33612705  0.15970605    -0.11300
C1977       C  0.70578394  0.34418644  0.17454909    -0.25200
C1978       C  0.71913370  0.35120437  0.18258162     0.37300
C1979       C  0.75375737  0.33304020  0.15916757     0.06800
F1980       F  0.72597192  0.32437214  0.14032528    -0.19000
H1981       H  0.69809445  0.33078667  0.15327503     0.16700
F1982       F  0.71717932  0.35893846  0.19700125    -0.22700
H1983       H  0.74503082  0.35321576  0.18365772     0.18500
C1984       C  0.76680091  0.34350387  0.15582608     0.26500
C1985       C  0.78246435  0.33730388  0.15401930    -0.11200
C1986       C  0.78531042  0.32070165  0.15594176    -0.25300
C1987       C  0.77222775  0.31025698  0.15892395     0.37400
C1988       C  0.75659663  0.31636588  0.16041553    -0.26900
F1989       F  0.76439976  0.35966534  0.15451478    -0.19000
H1990       H  0.79246940  0.34548873  0.15178616     0.16700
F1991       F  0.77469321  0.29415404  0.16068583    -0.22700
H1992       H  0.74673682  0.30812602  0.16314096     0.18500
C1993       C  0.88879222  0.18817337  0.29597462    -0.26800
C1994       C  0.89763364  0.18751756  0.28139192     0.06800
C1995       C  0.88971882  0.19168145  0.26685011     0.26500
C1996       C  0.87321959  0.19541966  0.26688250    -0.11300
C1997       C  0.86418230  0.19484098  0.28126530    -0.25200
C1998       C  0.87220417  0.19161188  0.29591141     0.37300
C1999       C  0.91425584  0.18049108  0.28121331     0.06800
F2000       F  0.89738602  0.19041817  0.25236115    -0.19000
H2001       H  0.86712047  0.19719350  0.25538388     0.16700
F2002       F  0.86369305  0.19012361  0.30988804    -0.22700
H2003       H  0.89452914  0.18503227  0.30734432     0.18500
C2004       C  0.92699692  0.18747429  0.27225752     0.26500
C2005       C  0.94212942  0.17992239  0.27148861    -0.11200
C2006       C  0.94487326  0.16525332  0.27953899    -0.25300
C2007       C  0.93232393  0.15854552  0.28888093     0.37400
C2008       C  0.91724263  0.16607554  0.28966320    -0.26900
F2009       F  0.92491656  0.20166794  0.26437005    -0.19000
H2010       H  0.95162819  0.18540485  0.26431573     0.16700
F2011       F  0.93467709  0.14483740  0.29752314    -0.22700
H2012       H  0.90772870  0.16038891  0.29665700     0.18500
C2013       C  0.77701563  0.20028574  0.26492419    -0.26800
C2014       C  0.77028896  0.20569791  0.27959440     0.06800
C2015       C  0.78069732  0.20919811  0.29275913     0.26500
C2016       C  0.79733575  0.20643452  0.29151007    -0.11300
C2017       C  0.80386566  0.20005683  0.27717803    -0.25200
C2018       C  0.79364347  0.19742697  0.26372580     0.37300
C2019       C  0.75242899  0.20653328  0.28158651     0.06800
F2020       F  0.77469456  0.21487078  0.30699933    -0.19000
H2021       H  0.80497084  0.20843189  0.30203868     0.16700
F2022       F  0.79970416  0.19160693  0.24956807    -0.22700
H2023       H  0.76929224  0.19753127  0.25462465     0.18500
C2024       C  0.74256437  0.21506375  0.27065791     0.26500
C2025       C  0.72588881  0.21646681  0.27352338    -0.11200
C2026       C  0.71882686  0.20928445  0.28722600    -0.25300
C2027       C  0.72857662  0.20009380  0.29762279     0.37400
C2028       C  0.74514756  0.19871900  0.29479018    -0.26900
F2029       F  0.74915676  0.22272571  0.25772073    -0.19000
H2030       H  0.71866053  0.22378268  0.26546699     0.16700
F2031       F  0.72207870  0.19262455  0.31072643    -0.22700
H2032       H  0.75238727  0.19167619  0.30309240     0.18500
C2033       C  0.78848248  0.32007471  0.24533599    -0.26800
C2034       C  0.80122019  0.31165902  0.23803012     0.06800
C2035       C  0.81403712  0.30620687  0.24786370     0.26500
C2036       C  0.81439150  0.30990862  0.26453209    -0.11300
C2037       C  0.80195198  0.31899902  0.27165069    -0.25200
C2038       C  0.78877264  0.32365564  0.26191757     0.37300
C2039       C  0.80164510  0.31003439  0.22003768     0.06800
F2040       F  0.82673863  0.29828804  0.24119088    -0.19000
H2041       H  0.82479719  0.30641522  0.27165871     0.16700
F2042       F  0.77628280  0.33207048  0.26838090    -0.22700
H2043       H  0.77843038  0.32425006  0.23806173     0.18500
C2044       C  0.80403860  0.29500561  0.21237025     0.26500
C2045       C  0.80549670  0.29407758  0.19545352    -0.11200
C2046       C  0.80450222  0.30805576  0.18586169    -0.25300
C2047       C  0.80156934  0.32299069  0.19348484     0.37400
C2048       C  0.80005985  0.32391185  0.21038276    -0.26900
F2049       F  0.80506042  0.28125824  0.22121795    -0.19000
H2050       H  0.80783535  0.28244834  0.18983094     0.16700
F2051       F  0.80148717  0.33687518  0.18481364    -0.22700
H2052       H  0.79835110  0.33564476  0.21602759     0.18500
C2053       C  0.80676188  0.27273571  0.29433366    -0.26800
C2054       C  0.82249333  0.26812244  0.29873861     0.06800
C2055       C  0.83271095  0.27965162  0.30623951     0.26500
C2056       C  0.82754502  0.29570481  0.30827363    -0.11300
C2057       C  0.81213722  0.30045734  0.30296030    -0.25200
C2058       C  0.80159448  0.28867012  0.29649284     0.37300
C2059       C  0.82824670  0.25167150  0.29415480     0.06800
F2060       F  0.84801372  0.27569820  0.31057814    -0.19000
H2061       H  0.83591229  0.30462616  0.31309681     0.16700
F2062       F  0.78647834  0.29276116  0.29166570    -0.22700
H2063       H  0.79858416  0.26402533  0.28876539     0.18500
C2064       C  0.83434609  0.24074754  0.30568288     0.26500
C2065       C  0.83761469  0.22464822  0.30118162    -0.11200
C2066       C  0.83487346  0.21929711  0.28518809    -0.25300
C2067       C  0.82977490  0.23047100  0.27353917     0.37400
C2068       C  0.82649185  0.24644653  0.27798292    -0.26900
F2069       F  0.83603757  0.24528525  0.32145515    -0.19000
H2070       H  0.84126373  0.21609610  0.31035943     0.16700
F2071       F  0.82713413  0.22561665  0.25799367    -0.22700
H2072       H  0.82202350  0.25466809  0.26884832     0.18500
C2073       C  0.41274730  0.20659767  0.32030012    -0.26800
C2074       C  0.41083505  0.21532744  0.30589679     0.06800
C2075       C  0.42472252  0.22113174  0.29792441     0.26500
C2076       C  0.44016016  0.21845171  0.30447468    -0.11300
C2077       C  0.44205578  0.21013643  0.31920780    -0.25200
C2078       C  0.42809238  0.20400516  0.32691077     0.37300
C2079       C  0.39425899  0.21942913  0.30025913     0.06800
F2080       F  0.42335056  0.22946416  0.28385688    -0.19000
H2081       H  0.45059529  0.22330846  0.29822163     0.16700
F2082       F  0.42912629  0.19539460  0.34082128    -0.22700
H2083       H  0.40223625  0.20214253  0.32674556     0.18500
C2084       C  0.38217967  0.20742325  0.29847558     0.26500
C2085       C  0.36599492  0.21175583  0.29589954    -0.11200
C2086       C  0.36160409  0.22810455  0.29529282    -0.25300
C2087       C  0.37380414  0.24004272  0.29619758     0.37400
C2088       C  0.38995683  0.23571773  0.29853618    -0.26900
F2089       F  0.38596099  0.19154096  0.29983548    -0.19000
H2090       H  0.35678191  0.20239064  0.29536918     0.16700
F2091       F  0.36998103  0.25596920  0.29548960    -0.22700
H2092       H  0.39898778  0.24517643  0.29997081     0.18500
C2093       C  0.63197502  0.22753667  0.29253092    -0.26800
C2094       C  0.62481949  0.21209411  0.29312085     0.06800
C2095       C  0.63438084  0.19852712  0.28935235     0.26500
C2096       C  0.65107421  0.20031570  0.28675745    -0.11300
C2097       C  0.65845481  0.21561261  0.28797301    -0.25200
C2098       C  0.64865388  0.22929065  0.29011118     0.37300
C2099       C  0.60821616  0.21022532  0.29993193     0.06800
F2100       F  0.62775936  0.18345804  0.28921580    -0.19000
H2101       H  0.65842691  0.18961472  0.28527987     0.16700
F2102       F  0.65545124  0.24425088  0.29124332    -0.22700
H2103       H  0.62488694  0.23817081  0.29528924     0.18500
C2104       C  0.60571416  0.20082514  0.31390032     0.26500
C2105       C  0.59062069  0.20052318  0.32155308    -0.11200
C2106       C  0.57757426  0.20941269  0.31541680    -0.25300
C2107       C  0.57993695  0.21858059  0.30124065     0.37400
C2108       C  0.59516716  0.21909230  0.29370292    -0.26900
F2109       F  0.61811473  0.19255825  0.32067624    -0.19000
H2110       H  0.58916731  0.19336527  0.33241852     0.16700
F2111       F  0.56779803  0.22768749  0.29512879    -0.22700
H2112       H  0.59685937  0.22662144  0.28312644     0.18500
C2113       C  0.52101715  0.20166967  0.49301190    -0.26800
C2114       C  0.50809616  0.20850390  0.48447067     0.06800
C2115       C  0.49472304  0.21428143  0.49318469     0.26500
C2116       C  0.49437201  0.21325956  0.51015145    -0.11300
C2117       C  0.50726510  0.20631823  0.51880058    -0.25200
C2118       C  0.52061261  0.20043994  0.50995086     0.37300
C2119       C  0.50836556  0.20877207  0.46645821     0.06800
F2120       F  0.48208515  0.22109791  0.48529332    -0.19000
H2121       H  0.48399101  0.21802927  0.51650297     0.16700
F2122       F  0.53303900  0.19291862  0.51748042    -0.22700
H2123       H  0.53129017  0.19686863  0.48647496     0.18500
C2124       C  0.52074599  0.21685026  0.45802927     0.26500
C2125       C  0.52140721  0.21611235  0.44103326    -0.11200
C2126       C  0.50971889  0.20734865  0.43211615    -0.25300
C2127       C  0.49725352  0.19936752  0.44064211     0.37400
C2128       C  0.49659918  0.20016179  0.45760438    -0.26900
F2129       F  0.53207160  0.22561995  0.46624444    -0.19000
H2130       H  0.53100173  0.22253973  0.43483848     0.16700
F2131       F  0.48604096  0.19021531  0.43270939    -0.22700
H2132       H  0.48710410  0.19366357  0.46389609     0.18500
C2133       C  0.62852663  0.19883625  0.66050919    -0.26800
C2134       C  0.61786242  0.21128758  0.65620808     0.06800
C2135       C  0.62379312  0.22723098  0.65536751     0.26500
C2136       C  0.64023954  0.23041747  0.65770643    -0.11300
C2137       C  0.65112013  0.21782990  0.66083581    -0.25200
C2138       C  0.64505673  0.20203174  0.66276229     0.37300
C2139       C  0.60123597  0.20744559  0.65046028     0.06800
F2140       F  0.61400368  0.23950647  0.65077170    -0.19000
H2141       H  0.64469364  0.24263782  0.65594851     0.16700
F2142       F  0.65522666  0.18945995  0.66513888    -0.22700
H2143       H  0.62418617  0.18646769  0.66119175     0.18500
C2144       C  0.59890023  0.19662125  0.63741466     0.26500
C2145       C  0.58360642  0.19465975  0.63041819    -0.11200
C2146       C  0.57028393  0.20327517  0.63635824    -0.25300
C2147       C  0.57242775  0.21356941  0.64988646     0.37400
C2148       C  0.58782549  0.21570747  0.65677243    -0.26900
F2149       F  0.61159692  0.18866447  0.63077289    -0.19000
H2150       H  0.58224080  0.18661142  0.62007343     0.16700
F2151       F  0.55991559  0.22232142  0.65581782    -0.22700
H2152       H  0.58938013  0.22414358  0.66677645     0.18500
C2153       C  0.67508615  0.20866923  0.71170504    -0.26800
C2154       C  0.68497459  0.19517757  0.71434675     0.06800
C2155       C  0.69203357  0.18738594  0.70095171     0.26500
C2156       C  0.68982533  0.19345708  0.68529134    -0.11300
C2157       C  0.68077691  0.20754356  0.68274143    -0.25200
C2158       C  0.67304371  0.21487051  0.69604003     0.37300
C2159       C  0.68916195  0.19036989  0.73115140     0.06800
F2160       F  0.70148058  0.17421214  0.70310619    -0.19000
H2161       H  0.69578229  0.18760180  0.67517504     0.16700
F2162       F  0.66461925  0.22874434  0.69405297    -0.22700
H2163       H  0.66968397  0.21493125  0.72190525     0.18500
C2164       C  0.70515660  0.19206417  0.73678009     0.26500
C2165       C  0.70880462  0.18954319  0.75314682    -0.11200
C2166       C  0.69665026  0.18516093  0.76415231    -0.25300
C2167       C  0.68083604  0.18255183  0.75837867     0.37400
C2168       C  0.67709602  0.18532885  0.74201401    -0.26900
F2169       F  0.71701940  0.19730467  0.72669736    -0.19000
H2170       H  0.72095824  0.19193372  0.75750319     0.16700
F2171       F  0.66878406  0.17881293  0.76887104    -0.22700
H2172       H  0.66469568  0.18406792  0.73791485     0.18500
C2173       C  0.68992981  0.38267501  0.79641186    -0.26800
C2174       C  0.68712900  0.39438248  0.78439529     0.06800
C2175       C  0.68850859  0.38983628  0.76798934     0.26500
C2176       C  0.69146805  0.37375499  0.76375064    -0.11300
C2177       C  0.69308184  0.36182999  0.77569048    -0.25200
C2178       C  0.69291536  0.36649208  0.79211604     0.37300
C2179       C  0.68109387  0.41077527  0.78874891     0.06800
F2180       F  0.68551167  0.40060406  0.75600181    -0.19000
H2181       H  0.69135257  0.37036287  0.75102645     0.16700
F2182       F  0.69415487  0.35523140  0.80395454    -0.22700
H2183       H  0.68903572  0.38592842  0.80912786     0.18500
C2184       C  0.66714621  0.41252251  0.79831817     0.26500
C2185       C  0.66026187  0.42777770  0.80066389    -0.11200
C2186       C  0.66707984  0.44166383  0.79356122    -0.25300
C2187       C  0.68133212  0.43997534  0.78437929     0.37400
C2188       C  0.68821356  0.42468346  0.78202547    -0.26900
F2189       F  0.65961633  0.39936575  0.80465650    -0.19000
H2190       H  0.64936484  0.42865729  0.80785856     0.16700
F2191       F  0.68815371  0.45288219  0.77688928    -0.22700
H2192       H  0.69891767  0.42363133  0.77455604     0.18500
C2193       C  0.71699293  0.24404020  0.78103458    -0.26800
C2194       C  0.70367121  0.24992427  0.77236035     0.06800
C2195       C  0.69154089  0.23898593  0.76722947     0.26500
C2196       C  0.69210325  0.22277720  0.77185618    -0.11300
C2197       C  0.70486303  0.21712114  0.78146443    -0.25200
C2198       C  0.71759385  0.22777068  0.78558460     0.37300
C2199       C  0.70117608  0.26760711  0.77091953     0.06800
F2200       F  0.67868909  0.24417821  0.75845607    -0.19000
H2201       H  0.68201792  0.21494067  0.76876704     0.16700
F2202       F  0.73026647  0.22258825  0.79461667    -0.22700
H2203       H  0.72642677  0.25224179  0.78517399     0.18500
C2204       C  0.71312733  0.27809031  0.76470570     0.26500
C2205       C  0.71035060  0.29482971  0.76405992    -0.11200
C2206       C  0.69573984  0.30124432  0.76980290    -0.25300
C2207       C  0.68394603  0.29072879  0.77612235     0.37400
C2208       C  0.68668414  0.27415746  0.77671001    -0.26900
F2209       F  0.72725066  0.27211856  0.75894215    -0.19000
H2210       H  0.71946358  0.30274321  0.75893307     0.16700
F2211       F  0.66977357  0.29655072  0.78195394    -0.22700
H2212       H  0.67748611  0.26639809  0.78193269     0.18500
C2213       C  0.77793341  0.33336131  0.78753677    -0.26800
C2214       C  0.76588436  0.32727255  0.79798950     0.06800
C2215       C  0.77100927  0.31784888  0.81130507     0.26500
C2216       C  0.78718898  0.31310922  0.81275385    -0.11300
C2217       C  0.79892633  0.31853075  0.80173171    -0.25200
C2218       C  0.79425655  0.32973259  0.78987388     0.37300
C2219       C  0.74822891  0.32974362  0.79416070     0.06800
F2220       F  0.76048653  0.31304898  0.82294970    -0.19000
H2221       H  0.79042477  0.30479199  0.82228748     0.16700
F2222       F  0.80541630  0.33699495  0.78028180    -0.22700
H2223       H  0.77486937  0.34051817  0.77706961     0.18500
C2224       C  0.74275872  0.34345344  0.78562387     0.26500
C2225       C  0.72695496  0.34401979  0.77949347    -0.11200
C2226       C  0.71566577  0.33168317  0.78279397    -0.25300
C2227       C  0.72050405  0.31911769  0.79316263     0.37400
C2228       C  0.73667568  0.31773400  0.79797586    -0.26900
F2229       F  0.75257270  0.35640646  0.78309657    -0.19000
H2230       H  0.72371750  0.35405221  0.77182430     0.16700
F2231       F  0.70969598  0.30810557  0.79876434    -0.22700
H2232       H  0.74005208  0.30690136  0.80436717     0.18500
C2233       C  0.82129883  0.30804343  0.70958171    -0.26800
C2234       C  0.80882425  0.31143558  0.72059771     0.06800
C2235       C  0.79439155  0.31822625  0.71480477     0.26500
C2236       C  0.79287633  0.32219797  0.69839307    -0.11300
C2237       C  0.80570174  0.31952880  0.68758212    -0.25200
C2238       C  0.81988707  0.31224249  0.69329123     0.37300
C2239       C  0.81204049  0.30998728  0.73821180     0.06800
F2240       F  0.78228689  0.32217307  0.72516006    -0.19000
H2241       H  0.78192960  0.32799544  0.69423373     0.16700
F2242       F  0.83296961  0.31056462  0.68356435    -0.22700
H2243       H  0.83256903  0.30294750  0.71381713     0.18500
C2244       C  0.80131226  0.30199324  0.74876868     0.26500
C2245       C  0.80490071  0.30102869  0.76537545    -0.11200
C2246       C  0.81921343  0.30795254  0.77154228    -0.25300
C2247       C  0.82988590  0.31586726  0.76097918     0.37400
C2248       C  0.82626275  0.31694785  0.74453664    -0.26900
F2249       F  0.78769442  0.29472270  0.74297818    -0.19000
H2250       H  0.79668407  0.29468273  0.77337302     0.16700
F2251       F  0.84371932  0.32283594  0.76665092    -0.22700
H2252       H  0.83458128  0.32336672  0.73669668     0.18500
C2253       C  0.76740030  0.19960192  0.68549518    -0.26800
C2254       C  0.76235546  0.20949992  0.67270918     0.06800
C2255       C  0.77394244  0.21569655  0.66189057     0.26500
C2256       C  0.79004940  0.21091583  0.66303528    -0.11300
C2257       C  0.79490418  0.20011356  0.67513291    -0.25200
C2258       C  0.78356216  0.19487685  0.68668641     0.37300
C2259       C  0.74491091  0.21185835  0.66963038     0.06800
F2260       F  0.76953075  0.22582239  0.64977959    -0.19000
H2261       H  0.79850609  0.21496436  0.65389356     0.16700
F2262       F  0.78801100  0.18472005  0.69875313    -0.22700
H2263       H  0.75866306  0.19481373  0.69401162     0.18500
C2264       C  0.73829472  0.20750502  0.65448742     0.26500
C2265       C  0.72190214  0.20972313  0.65140422    -0.11200
C2266       C  0.71172748  0.21624113  0.66332166    -0.25300
C2267       C  0.71824831  0.22041511  0.67859211     0.37400
C2268       C  0.73472109  0.21803881  0.68175608    -0.26900
F2269       F  0.74766615  0.20089001  0.64271308    -0.19000
H2270       H  0.71711763  0.20640297  0.63958223     0.16700
F2271       F  0.70894319  0.22743491  0.69015541    -0.22700
H2272       H  0.73962396  0.22141453  0.69350896     0.18500
C2273       C  0.83181819  0.27926223  0.65465151    -0.26800
C2274       C  0.82025881  0.26848505  0.66101291     0.06800
C2275       C  0.80450745  0.27412727  0.66396584     0.26500
C2276       C  0.80072273  0.29034417  0.66145909    -0.11300
C2277       C  0.81245338  0.30128278  0.65589754    -0.25200
C2278       C  0.82794284  0.29554411  0.65205153     0.37300
C2279       C  0.82447423  0.25145644  0.66479825     0.06800
F2280       F  0.79279486  0.26399388  0.66949769    -0.19000
H2281       H  0.78876180  0.29461829  0.66454223     0.16700
F2282       F  0.83969945  0.30594352  0.64724750    -0.22700
H2283       H  0.84404041  0.27524274  0.65236371     0.18500
C2284       C  0.83183614  0.24138363  0.65316986     0.26500
C2285       C  0.83323646  0.22475553  0.65599200    -0.11200
C2286       C  0.82732544  0.21797738  0.67039399    -0.25300
C2287       C  0.82132691  0.22823101  0.68258073     0.37400
C2288       C  0.81995092  0.24481530  0.67980260    -0.26900
F2289       F  0.83652391  0.24735880  0.63861264    -0.19000
H2290       H  0.83787729  0.21698919  0.64648162     0.16700
F2291       F  0.81605269  0.22203041  0.69684459    -0.22700
H2292       H  0.81473641  0.25240926  0.68915679     0.18500
C2293       C  0.80907954  0.69239231  0.39578414    -0.26800
C2294       C  0.81787413  0.68470944  0.38342506     0.06800
C2295       C  0.82702006  0.67096530  0.38720544     0.26500
C2296       C  0.82694531  0.66478599  0.40293733    -0.11300
C2297       C  0.81778594  0.67215083  0.41524370    -0.25200
C2298       C  0.80905141  0.68624347  0.41158457     0.37300
C2299       C  0.81631132  0.68997824  0.36633644     0.06800
F2300       F  0.83529868  0.66295005  0.37547568    -0.19000
H2301       H  0.83383937  0.65398539  0.40540301     0.16700
F2302       F  0.79972762  0.69355945  0.42294652    -0.22700
H2303       H  0.80188665  0.70294128  0.39307453     0.18500
C2304       C  0.80102531  0.69017077  0.35884258     0.26500
C2305       C  0.79977188  0.69214134  0.34207235    -0.11200
C2306       C  0.81366155  0.69414210  0.33253849    -0.25300
C2307       C  0.82885807  0.69510434  0.34010852     0.37400
C2308       C  0.83015542  0.69298487  0.35691678    -0.26900
F2309       F  0.78742749  0.68699719  0.36748798    -0.19000
H2310       H  0.78799795  0.69107864  0.33635193     0.16700
F2311       F  0.84250448  0.69654038  0.33110551    -0.22700
H2312       H  0.84203143  0.69288039  0.36248436     0.18500
C2313       C  0.80119992  0.69699057  0.56644079    -0.26800
C2314       C  0.80650998  0.68825432  0.57997484     0.06800
C2315       C  0.81014896  0.67175292  0.57803929     0.26500
C2316       C  0.80849075  0.66419428  0.56289320    -0.11300
C2317       C  0.80330939  0.67290200  0.54926971    -0.25200
C2318       C  0.79970038  0.68945730  0.55119471     0.37300
C2319       C  0.80769784  0.69600838  0.59627073     0.06800
F2320       F  0.81491539  0.66279863  0.59092606    -0.19000
H2321       H  0.81144085  0.65149511  0.56183128     0.16700
F2322       F  0.79427605  0.69828742  0.53850272    -0.22700
H2323       H  0.79823002  0.70967681  0.56769269     0.18500
C2324       C  0.79400411  0.70279405  0.60370775     0.26500
C2325       C  0.79440335  0.70701178  0.62022136    -0.11200
C2326       C  0.80841616  0.70454271  0.62951284    -0.25300
C2327       C  0.82244949  0.69901890  0.62175166     0.37400
C2328       C  0.82209789  0.69488379  0.60525772    -0.26900
F2329       F  0.77979955  0.70375241  0.59549187    -0.19000
H2330       H  0.78331689  0.71071054  0.62611019     0.16700
F2331       F  0.83600981  0.69602235  0.63050539    -0.22700
H2332       H  0.83280550  0.68978317  0.59973952     0.18500
C2333       C  0.82006759  0.35676435  0.38413431    -0.26800
C2334       C  0.81275325  0.34150056  0.38197170     0.06800
C2335       C  0.80575416  0.33389289  0.39551239     0.26500
C2336       C  0.80576906  0.34162652  0.41073462    -0.11300
C2337       C  0.81256695  0.35716242  0.41272942    -0.25200
C2338       C  0.81997242  0.36454274  0.39927278     0.37300
C2339       C  0.81197750  0.33415471  0.36539004     0.06800
F2340       F  0.79893645  0.31897575  0.39404560    -0.19000
H2341       H  0.80005469  0.33562022  0.42087588     0.16700
F2342       F  0.82731124  0.37921721  0.40072616    -0.22700
H2343       H  0.82556475  0.36288559  0.37393426     0.18500
C2344       C  0.79705925  0.32958453  0.35839992     0.26500
C2345       C  0.79611285  0.32542257  0.34189220    -0.11200
C2346       C  0.80992035  0.32587125  0.33199651    -0.25300
C2347       C  0.82492947  0.32962027  0.33915131     0.37400
C2348       C  0.82594320  0.33357509  0.35569804    -0.26900
F2349       F  0.78316171  0.33078187  0.36704484    -0.19000
H2350       H  0.78432306  0.32333496  0.33647691     0.16700
F2351       F  0.83833353  0.33112726  0.32980903    -0.22700
H2352       H  0.83754337  0.33715216  0.36074588     0.18500
C2353       C  0.82599263  0.33552133  0.60413346    -0.26800
C2354       C  0.81195222  0.33516142  0.59449498     0.06800
C2355       C  0.79745321  0.32932167  0.60125900     0.26500
C2356       C  0.79679455  0.32520335  0.61768664    -0.11300
C2357       C  0.81050636  0.32688521  0.62761164    -0.25200
C2358       C  0.82526567  0.33156914  0.62060628     0.37300
C2359       C  0.81195781  0.34269047  0.57817717     0.06800
F2360       F  0.78355106  0.32923672  0.59246795    -0.19000
H2361       H  0.78520457  0.32218404  0.62301564     0.16700
F2362       F  0.83855038  0.33401036  0.63002872    -0.22700
H2363       H  0.83730003  0.33989693  0.59914599     0.18500
C2364       C  0.81737480  0.35873645  0.57621061     0.26500
C2365       C  0.81611112  0.36630285  0.56113885    -0.11200
C2366       C  0.80950354  0.35805579  0.54767847    -0.25300
C2367       C  0.80420116  0.34195106  0.54962840     0.37400
C2368       C  0.80544059  0.33438957  0.56473594    -0.26900
F2369       F  0.82329969  0.36734415  0.58902281    -0.19000
H2370       H  0.82032807  0.37867308  0.56003020     0.16700
F2371       F  0.79717732  0.33369621  0.53717003    -0.22700
H2372       H  0.80108592  0.32207681  0.56601083     0.18500
C2373       C  0.80890522  0.53259668  0.46838150    -0.26800
C2374       C  0.79798527  0.52445934  0.47854742     0.06800
C2375       C  0.78793444  0.53362757  0.48878950     0.26500
C2376       C  0.78903833  0.55051767  0.48900087    -0.11300
C2377       C  0.80004336  0.55866736  0.47892490    -0.25200
C2378       C  0.80990995  0.54949035  0.46846621     0.37300
C2379       C  0.79765328  0.50647191  0.47888658     0.06800
F2380       F  0.77687446  0.52628344  0.49845898    -0.19000
H2381       H  0.78113070  0.55723119  0.49699332     0.16700
F2382       F  0.82103604  0.55669458  0.45878549    -0.22700
H2383       H  0.81701883  0.52583705  0.46063336     0.18500
C2384       C  0.79750083  0.49727422  0.46447936     0.26500
C2385       C  0.79794764  0.48037293  0.46505025    -0.11200
C2386       C  0.79853182  0.47214283  0.47996836    -0.25300
C2387       C  0.79830094  0.48147771  0.49440368     0.37400
C2388       C  0.79798917  0.49836536  0.49377914    -0.26900
F2389       F  0.79672075  0.50459754  0.44980367    -0.19000
H2390       H  0.79787054  0.47382539  0.45366030     0.16700
F2391       F  0.79856729  0.47456244  0.50925024    -0.22700
H2392       H  0.79834133  0.50515416  0.50506205     0.18500
C2393       C  0.69061620  0.92372578  0.14511430    -0.26800
C2394       C  0.69837694  0.92226331  0.16021065     0.06800
C2395       C  0.70475025  0.93630953  0.16768515     0.26500
C2396       C  0.70428679  0.95122205  0.15967119    -0.11300
C2397       C  0.69757560  0.95238811  0.14403065    -0.25200
C2398       C  0.69017372  0.93858682  0.13710985     0.37300
C2399       C  0.70197103  0.90584711  0.16659624     0.06800
F2400       F  0.71193053  0.93549257  0.18248643    -0.19000
H2401       H  0.70988462  0.96168514  0.16538868     0.16700
F2402       F  0.68271257  0.93934965  0.12245590    -0.22700
H2403       H  0.68566559  0.91314033  0.13903176     0.18500
C2404       C  0.69015484  0.89345020  0.16688490     0.26500
C2405       C  0.69468708  0.87729609  0.16936019    -0.11200
C2406       C  0.71103178  0.87331337  0.17140418    -0.25300
C2407       C  0.72260102  0.88581890  0.17233769     0.37400
C2408       C  0.71809017  0.90188219  0.17005404    -0.26900
F2409       F  0.67439494  0.89684213  0.16390208    -0.19000
H2410       H  0.68562991  0.86780839  0.16839756     0.16700
F2411       F  0.73850753  0.88234335  0.17426076    -0.22700
H2412       H  0.72747145  0.91107923  0.16970749     0.18500
C2413       C  0.69153764  0.14350031  0.14978518    -0.26800
C2414       C  0.70569404  0.13544251  0.15439454     0.06800
C2415       C  0.71871591  0.14451480  0.16081911     0.26500
C2416       C  0.71782737  0.16142500  0.16178251    -0.11300
C2417       C  0.70409154  0.16947384  0.15608717    -0.25200
C2418       C  0.69081047  0.16038945  0.15039708     0.37300
C2419       C  0.70756613  0.11810368  0.15007317     0.06800
F2420       F  0.73255996  0.13707149  0.16538791    -0.19000
H2421       H  0.72826498  0.16829336  0.16593362     0.16700
F2422       F  0.67749896  0.16793175  0.14456233    -0.22700
H2423       H  0.68146377  0.13677446  0.14461203     0.18500
C2424       C  0.69653703  0.10628183  0.15546220     0.26500
C2425       C  0.69731600  0.09039125  0.14940852    -0.11200
C2426       C  0.70882020  0.08618978  0.13759493    -0.25300
C2427       C  0.72016107  0.09791481  0.13266662     0.37400
C2428       C  0.71956936  0.11365195  0.13893289    -0.26900
F2429       F  0.68486203  0.11019593  0.16632113    -0.19000
H2430       H  0.68849758  0.08154908  0.15343312     0.16700
F2431       F  0.73181094  0.09419216  0.12172154    -0.22700
H2432       H  0.72811552  0.12259307  0.13454771     0.18500
C2433       C  0.70778223  0.92703649  0.79808200    -0.26800
C2434       C  0.69906904  0.91417905  0.80506776     0.06800
C2435       C  0.69144169  0.91681682  0.82012901     0.26500
C2436       C  0.69269073  0.93184177  0.82800210    -0.11300
C2437       C  0.70145565  0.94464830  0.82107808    -0.25200
C2438       C  0.70889292  0.94214901  0.80591107     0.37300
C2439       C  0.69933488  0.89766332  0.79758703     0.06800
F2440       F  0.68346264  0.90462576  0.82770675    -0.19000
H2441       H  0.68686622  0.93342533  0.83965617     0.16700
F2442       F  0.71791205  0.95402282  0.79901934    -0.22700
H2443       H  0.71395337  0.92528710  0.78663329     0.18500
C2444       C  0.68516583  0.88815998  0.79612923     0.26500
C2445       C  0.68615580  0.87159343  0.79244119    -0.11200
C2446       C  0.70122132  0.86429977  0.78997918    -0.25300
C2447       C  0.71517539  0.87408589  0.78981138     0.37400
C2448       C  0.71421839  0.89061687  0.79350621    -0.26900
F2449       F  0.67045518  0.89467973  0.79915933    -0.19000
H2450       H  0.67529553  0.86420765  0.79288536     0.16700
F2451       F  0.72992834  0.86731084  0.78766766    -0.22700
H2452       H  0.72530399  0.89761789  0.79443929     0.18500
C2453       C  0.71062633  0.13221928  0.79010988    -0.26800
C2454       C  0.69808424  0.12470307  0.79879368     0.06800
C2455       C  0.68411741  0.13359339  0.80244046     0.26500
C2456       C  0.68338445  0.15008288  0.79870181    -0.11300
C2457       C  0.69640331  0.15786730  0.79101829    -0.25200
C2458       C  0.70975330  0.14865606  0.78611785     0.37300
C2459       C  0.70062339  0.10856508  0.80613569     0.06800
F2460       F  0.67190512  0.12675110  0.81103897    -0.19000
H2461       H  0.67320213  0.15708621  0.80297284     0.16700
F2462       F  0.72272138  0.15595874  0.77915900    -0.22700
H2463       H  0.72151968  0.12557881  0.78729093     0.18500
C2464       C  0.69102916  0.09512280  0.80179442     0.26500
C2465       C  0.69319466  0.08023856  0.80958934    -0.11200
C2466       C  0.70465894  0.07862906  0.82212579    -0.25300
C2467       C  0.71429368  0.09212157  0.82636543     0.37400
C2468       C  0.71235404  0.10686022  0.81833608    -0.26900
F2469       F  0.67958285  0.09641020  0.79005411    -0.19000
H2470       H  0.68560006  0.07006466  0.80610931     0.16700
F2471       F  0.72578685  0.09103190  0.83808071    -0.22700
H2472       H  0.71982106  0.11711487  0.82188334     0.18500
C2473       C  0.70845980  0.02492548  0.96383625    -0.26800
C2474       C  0.71513759  0.01189303  0.97237700     0.06800
C2475       C  0.72131729  0.99875682  0.96338829     0.26500
C2476       C  0.72075634  0.99874464  0.94633724    -0.11300
C2477       C  0.71416940  0.01185225  0.93780449    -0.25200
C2478       C  0.70797987  0.02496534  0.94682059     0.37300
C2479       C  0.71516944  0.01197329  0.99056569     0.06800
F2480       F  0.72823631  0.98607038  0.97106136    -0.19000
H2481       H  0.72571549  0.98853128  0.93978801     0.16700
F2482       F  0.70085662  0.03760246  0.93927939    -0.22700
H2483       H  0.70325968  0.03502022  0.97038460     0.18500
C2484       C  0.72031460  0.02568383  0.99945894     0.26500
C2485       C  0.71954791  0.02590058  0.01647014    -0.11200
C2486       C  0.71361672  0.01250237  0.02517403    -0.25300
C2487       C  0.70864841  0.99868917  0.01621681     0.37400
C2488       C  0.70945528  0.99849062  0.99919409    -0.26900
F2489       F  0.72633278  0.03885283  0.99172177    -0.19000
H2490       H  0.72372070  0.03665195  0.02279794     0.16700
F2491       F  0.70246317  0.98548390  0.02370591    -0.22700
H2492       H  0.70515744  0.98786464  0.99270106     0.18500
C2493       C  0.18220503  0.34434993  0.11002676    -0.26800
C2494       C  0.18070621  0.33323726  0.09710597     0.06800
C2495       C  0.18262914  0.31665518  0.10019722     0.26500
C2496       C  0.18484390  0.31128442  0.11606102    -0.11300
C2497       C  0.18519780  0.32228595  0.12910498    -0.25200
C2498       C  0.18451476  0.33893953  0.12594025     0.37300
C2499       C  0.17458205  0.33854415  0.08109577     0.06800
F2500       F  0.18073031  0.30552070  0.08814459    -0.19000
H2501       H  0.18515841  0.29839014  0.11831331     0.16700
F2502       F  0.18446152  0.34983916  0.13832186    -0.22700
H2503       H  0.18065761  0.35716139  0.10788780     0.18500
C2504       C  0.18229932  0.33405127  0.06659305     0.26500
C2505       C  0.17480430  0.33680754  0.05161615    -0.11200
C2506       C  0.15945414  0.34400315  0.05084796    -0.25300
C2507       C  0.15226523  0.34942697  0.06536942     0.37400
C2508       C  0.15977980  0.34668612  0.08029261    -0.26900
F2509       F  0.19687062  0.32660793  0.06694677    -0.19000
H2510       H  0.18073459  0.33264262  0.04068474     0.16700
F2511       F  0.13788465  0.35722145  0.06526177    -0.22700
H2512       H  0.15365048  0.35030163  0.09132563     0.18500
C2513       C  0.81551381  0.31974629  0.06267241    -0.26800
C2514       C  0.82292754  0.32556258  0.07694381     0.06800
C2515       C  0.83869089  0.33201006  0.07597199     0.26500
C2516       C  0.84670052  0.33276316  0.06109332    -0.11300
C2517       C  0.83940580  0.32685566  0.04679507    -0.25200
C2518       C  0.82362065  0.32032858  0.04775064     0.37300
C2519       C  0.81510562  0.32325980  0.09303732     0.06800
F2520       F  0.84677862  0.33679038  0.08955047    -0.19000
H2521       H  0.85878565  0.33784704  0.06089004     0.16700
F2522       F  0.81621481  0.31383786  0.03450380    -0.22700
H2523       H  0.80351488  0.31443726  0.06314346     0.18500
C2524       C  0.81519765  0.33565026  0.10487955     0.26500
C2525       C  0.81161818  0.33209442  0.12109772    -0.11200
C2526       C  0.80765739  0.31624093  0.12564988    -0.25300
C2527       C  0.80575488  0.30433635  0.11354060     0.37400
C2528       C  0.80940405  0.30783946  0.09737173    -0.26900
F2529       F  0.81978330  0.35093218  0.10096513    -0.19000
H2530       H  0.81337905  0.34138036  0.13027335     0.16700
F2531       F  0.80190792  0.28890439  0.11762551    -0.22700
H2532       H  0.80908832  0.29811135  0.08850589     0.18500
C2533       C  0.84204313  0.33652773  0.88398761    -0.26800
C2534       C  0.82928557  0.32542135  0.88176311     0.06800
C2535       C  0.82309545  0.31724198  0.89534206     0.26500
C2536       C  0.83002940  0.31965567  0.91067852    -0.11300
C2537       C  0.84336083  0.33011145  0.91273308    -0.25200
C2538       C  0.84903953  0.33887170  0.89929227     0.37300
C2539       C  0.82414927  0.32089371  0.86506455     0.06800
F2540       F  0.81062708  0.30658542  0.89369273    -0.19000
H2541       H  0.82537528  0.31280885  0.92082380     0.16700
F2542       F  0.86143097  0.34961712  0.90087208    -0.22700
H2543       H  0.84712757  0.34285685  0.87370483     0.18500
C2544       C  0.82087069  0.33268855  0.85325002     0.26500
C2545       C  0.81926281  0.32822304  0.83687631    -0.11200
C2546       C  0.82104066  0.31200696  0.83214040    -0.25300
C2547       C  0.82313753  0.30014376  0.84406759     0.37400
C2548       C  0.82462945  0.30455922  0.86035536    -0.26900
F2549       F  0.82000163  0.34856276  0.85744180    -0.19000
H2550       H  0.81780385  0.33752946  0.82780740     0.16700
F2551       F  0.82481790  0.28434979  0.83981218    -0.22700
H2552       H  0.82730757  0.29526901  0.86915171     0.18500
C2553       C  0.01745251  0.34411298  0.99806853    -0.26800
C2554       C  0.00925591  0.33530296  0.98591615     0.06800
C2555       C  0.01832657  0.32733590  0.97390752     0.26500
C2556       C  0.03520566  0.32843649  0.97390810    -0.11300
C2557       C  0.04345020  0.33738556  0.98592943    -0.25200
C2558       C  0.03437584  0.34517432  0.99811908     0.37300
C2559       C  0.99128930  0.33500379  0.98533633     0.06800
F2560       F  0.01085617  0.31829378  0.96226339    -0.19000
H2561       H  0.04184542  0.32211829  0.96453255     0.16700
F2562       F  0.04174034  0.35437497  0.00969753    -0.22700
H2563       H  0.01070836  0.35054160  0.00729986     0.18500
C2564       C  0.98204533  0.33061681  0.99892124     0.26500
C2565       C  0.96512158  0.33027642  0.99799135    -0.11200
C2566       C  0.95699835  0.33443559  0.98355999    -0.25300
C2567       C  0.96638850  0.33904896  0.97004686     0.37400
C2568       C  0.98327122  0.33925246  0.97098330    -0.26900
F2569       F  0.98936911  0.32627014  0.01297811    -0.19000
H2570       H  0.95843553  0.32655964  0.00860875     0.16700
F2571       F  0.95944706  0.34378273  0.95596109    -0.22700
H2572       H  0.99014408  0.34298539  0.96046142     0.18500
C2573       C  0.16494065  0.70752719  0.06991040    -0.26800
C2574       C  0.17749933  0.69647072  0.07227753     0.06800
C2575       C  0.18418603  0.68857749  0.05875308     0.26500
C2576       C  0.17802234  0.69136409  0.04316219    -0.11300
C2577       C  0.16483827  0.70177162  0.04086130    -0.25200
C2578       C  0.15857828  0.71011819  0.05440484     0.37300
C2579       C  0.18169734  0.69156557  0.08900809     0.06800
F2580       F  0.19634164  0.67781864  0.06071795    -0.19000
H2581       H  0.18308963  0.68479456  0.03299038     0.16700
F2582       F  0.14619875  0.72067304  0.05275095    -0.22700
H2583       H  0.15953502  0.71360419  0.08022436     0.18500
C2584       C  0.18787274  0.70273959  0.10042749     0.26500
C2585       C  0.18842313  0.69875302  0.11695113    -0.11200
C2586       C  0.18256301  0.68369818  0.12225239    -0.25300
C2587       C  0.17754957  0.67215311  0.11062340     0.37400
C2588       C  0.17721621  0.67605831  0.09417153    -0.26900
F2589       F  0.19252283  0.71775834  0.09569969    -0.19000
H2590       H  0.19213027  0.70790384  0.12568504     0.16700
F2591       F  0.17186103  0.65746050  0.11529100    -0.22700
H2592       H  0.17235167  0.66732733  0.08556068     0.18500
C2593       C  0.16939194  0.69671055  0.87600166    -0.26800
C2594       C  0.18597932  0.70040882  0.87535300     0.06800
C2595       C  0.19424535  0.70361210  0.88998538     0.26500
C2596       C  0.18591057  0.70344986  0.90482341    -0.11300
C2597       C  0.16918048  0.70011282  0.90539283    -0.25200
C2598       C  0.16112204  0.69636880  0.89073342     0.37300
C2599       C  0.19387087  0.70210100  0.85919505     0.06800
F2600       F  0.21034601  0.70690101  0.88995450    -0.19000
H2601       H  0.19254056  0.70628292  0.91582784     0.16700
F2602       F  0.14523938  0.69220613  0.89045071    -0.22700
H2603       H  0.16260776  0.69444722  0.86495009     0.18500
C2604       C  0.19039893  0.69095621  0.84662896     0.26500
C2605       C  0.19367215  0.69491920  0.83051506    -0.11200
C2606       C  0.20081070  0.70981676  0.82666076    -0.25300
C2607       C  0.20612439  0.72007440  0.83924169     0.37400
C2608       C  0.20262458  0.71625334  0.85542350    -0.26900
F2609       F  0.18266366  0.67678936  0.84979247    -0.19000
H2610       H  0.18937105  0.68694101  0.82092788     0.16700
F2611       F  0.21311877  0.73454230  0.83578034    -0.22700
H2612       H  0.20546139  0.72506334  0.86480180     0.18500
C2613       C  0.82640656  0.72705764  0.10036487    -0.26800
C2614       C  0.82981150  0.71171426  0.09383303     0.06800
C2615       C  0.82840590  0.69808730  0.10393054     0.26500
C2616       C  0.82529561  0.70001857  0.12053552    -0.11300
C2617       C  0.82350243  0.71551204  0.12728633    -0.25200
C2618       C  0.82332773  0.72896147  0.11695363     0.37300
C2619       C  0.83702993  0.71037998  0.07734630     0.06800
F2620       F  0.83114569  0.68301574  0.09796022    -0.19000
H2621       H  0.82588053  0.68955400  0.12834879     0.16700
F2622       F  0.82191665  0.74411597  0.12321428    -0.22700
H2623       H  0.82750635  0.73775469  0.09291926     0.18500
C2624       C  0.83017153  0.71821881  0.06391197     0.26500
C2625       C  0.83803643  0.71804867  0.04886456    -0.11200
C2626       C  0.85300004  0.71028091  0.04693967    -0.25300
C2627       C  0.85971964  0.70222188  0.06033576     0.37400
C2628       C  0.85179399  0.70229461  0.07531810    -0.26900
F2629       F  0.81589013  0.72608116  0.06534019    -0.19000
H2630       H  0.83256833  0.72435250  0.03879138     0.16700
F2631       F  0.87384267  0.69407469  0.05898380    -0.22700
H2632       H  0.85746685  0.69636549  0.08551681     0.18500
C2633       C  0.82249175  0.71831052  0.89753225    -0.26800
C2634       C  0.82921603  0.71204524  0.88319140     0.06800
C2635       C  0.84477214  0.70527340  0.88387684     0.26500
C2636       C  0.85326524  0.70467062  0.89855468    -0.11300
C2637       C  0.84664664  0.71097871  0.91294724    -0.25200
C2638       C  0.83104178  0.71780207  0.91225727     0.37300
C2639       C  0.82086596  0.71402469  0.86727735     0.06800
F2640       F  0.85217632  0.69995897  0.87018016    -0.19000
H2641       H  0.86518000  0.69935300  0.89853764     0.16700
F2642       F  0.82421350  0.72460709  0.92557001    -0.22700
H2643       H  0.81066384  0.72384995  0.89727530     0.18500
C2644       C  0.81990937  0.70119804  0.85594852     0.26500
C2645       C  0.81580344  0.70422283  0.83973850    -0.11200
C2646       C  0.81228016  0.71997877  0.83468826    -0.25300
C2647       C  0.81145195  0.73240605  0.84635760     0.37400
C2648       C  0.81566664  0.72943419  0.86252104    -0.26900
F2649       F  0.82397380  0.68595038  0.86031434    -0.19000
H2650       H  0.81682633  0.69454351  0.83089442     0.16700
F2651       F  0.80813566  0.74777237  0.84176031    -0.22700
H2652       H  0.81616213  0.73949590  0.87099599     0.18500
C2653       C  0.99269570  0.70571467  0.98755183    -0.26800
C2654       C  0.00037513  0.70909498  0.97276643     0.06800
C2655       C  0.99074342  0.71178999  0.95897057     0.26500
C2656       C  0.97383628  0.71132123  0.96006368    -0.11300
C2657       C  0.96606178  0.70808574  0.97489730    -0.25200
C2658       C  0.97579879  0.70514062  0.98866033     0.37300
C2659       C  0.01837514  0.70955742  0.97182815     0.06800
F2660       F  0.99766378  0.71530522  0.94448633    -0.19000
H2661       H  0.96686412  0.71375985  0.94924246     0.16700
F2662       F  0.96916626  0.70127254  0.00316467    -0.22700
H2663       H  0.99983611  0.70323655  0.99827762     0.18500
C2664       C  0.02758322  0.71859940  0.98310888     0.26500
C2665       C  0.04450330  0.71843816  0.98250958    -0.11200
C2666       C  0.05264118  0.70943459  0.97056984    -0.25300
C2667       C  0.04344082  0.70057214  0.95913556     0.37400
C2668       C  0.02650614  0.70062110  0.95982666    -0.26900
F2669       F  0.02022183  0.72782433  0.99456023    -0.19000
H2670       H  0.05126656  0.72551269  0.99134499     0.16700
F2671       F  0.05076094  0.69128512  0.94771996    -0.22700
H2672       H  0.01972119  0.69335168  0.95116637     0.18500
C2673       C  0.17129693  0.25429214  0.65079037    -0.26800
C2674       C  0.17942722  0.26227060  0.66354568     0.06800
C2675       C  0.18610446  0.25288798  0.67610315     0.26500
C2676       C  0.18514923  0.23589005  0.67546045    -0.11300
C2677       C  0.17767276  0.22798499  0.66223822    -0.25200
C2678       C  0.17046528  0.23740546  0.65008387     0.37300
C2679       C  0.18078778  0.28030474  0.66336766     0.06800
F2680       F  0.19352957  0.26012638  0.68896295    -0.19000
H2681       H  0.19071331  0.22885622  0.68497108     0.16700
F2682       F  0.16351226  0.23025316  0.63692478    -0.22700
H2683       H  0.16606449  0.26117387  0.64097141     0.18500
C2684       C  0.19582043  0.28834742  0.66510650     0.26500
C2685       C  0.19680084  0.30531573  0.66416989    -0.11200
C2686       C  0.18288811  0.31445931  0.66122304    -0.25300
C2687       C  0.16796078  0.30645002  0.65929078     0.37400
C2688       C  0.16693159  0.28960146  0.66042857    -0.26900
F2689       F  0.20961466  0.27979255  0.66711847    -0.19000
H2690       H  0.20838848  0.31133821  0.66558215     0.16700
F2691       F  0.15427246  0.31506687  0.65684784    -0.22700
H2692       H  0.15523188  0.28377398  0.65905977     0.18500
C2693       C  0.33420612  0.14976417  0.79861337    -0.26800
C2694       C  0.32168549  0.13822312  0.79708282     0.06800
C2695       C  0.30653001  0.14335733  0.79125031     0.26500
C2696       C  0.30365366  0.15982522  0.78851906    -0.11300
C2697       C  0.31578708  0.17143422  0.79143165    -0.25200
C2698       C  0.33128756  0.16621301  0.79588614     0.37300
C2699       C  0.32363683  0.12176050  0.80421425     0.06800
F2700       F  0.29396029  0.13278757  0.78993739    -0.19000
H2701       H  0.29151589  0.16366531  0.78552264     0.16700
F2702       F  0.34313448  0.17718511  0.79924947    -0.22700
H2703       H  0.34598579  0.14617188  0.80302707     0.18500
C2704       C  0.31841238  0.10759870  0.79610368     0.26500
C2705       C  0.31840453  0.09264016  0.80412274    -0.11200
C2706       C  0.32360211  0.09147416  0.82036397    -0.25300
C2707       C  0.32976878  0.10547956  0.82806022     0.37400
C2708       C  0.32971225  0.12037199  0.82008923    -0.26900
F2709       F  0.31322761  0.10821793  0.78048249    -0.19000
H2710       H  0.31384905  0.08205559  0.79774893     0.16700
F2711       F  0.33592993  0.10486926  0.84331242    -0.22700
H2712       H  0.33393528  0.13100860  0.82661866     0.18500
C2713       C  0.38150305  0.18680067  0.65238092    -0.26800
C2714       C  0.38916700  0.20191218  0.65416309     0.06800
C2715       C  0.38007219  0.21522699  0.65955670     0.26500
C2716       C  0.36334631  0.21367027  0.66181225    -0.11300
C2717       C  0.35551240  0.19892788  0.65842418    -0.25200
C2718       C  0.36478054  0.18532975  0.65435021     0.37300
C2719       C  0.40586309  0.20406109  0.64798958     0.06800
F2720       F  0.38719788  0.22993813  0.66162305    -0.19000
H2721       H  0.35633596  0.22431618  0.66473643     0.16700
F2722       F  0.35745349  0.17095423  0.65094385    -0.22700
H2723       H  0.38826229  0.17641913  0.64816392     0.18500
C2724       C  0.41860741  0.19439513  0.65356817     0.26500
C2725       C  0.43382895  0.19528203  0.64618299    -0.11200
C2726       C  0.43645899  0.20548359  0.63284759    -0.25300
C2727       C  0.42377161  0.21536546  0.62747824     0.37400
C2728       C  0.40867874  0.21471965  0.63507991    -0.26900
F2729       F  0.41624818  0.18394482  0.66598783    -0.19000
H2730       H  0.44341430  0.18755724  0.65052471     0.16700
F2731       F  0.42595261  0.22569930  0.61492893    -0.22700
H2732       H  0.39896313  0.22213550  0.63047647     0.18500
C2733       C  0.27148498  0.20315505  0.67687785    -0.26800
C2734       C  0.26172384  0.21113566  0.66541042     0.06800
C2735       C  0.26939355  0.21837208  0.65200184     0.26500
C2736       C  0.28606039  0.21701334  0.64989389    -0.11300
C2737       C  0.29552603  0.20778997  0.66051596    -0.25200
C2738       C  0.28804705  0.20090971  0.67417067     0.37300
C2739       C  0.24363889  0.21017216  0.66635709     0.06800
F2740       F  0.26077212  0.22563519  0.64010147    -0.19000
H2741       H  0.29145841  0.22241884  0.63924314     0.16700
F2742       F  0.29621859  0.19084664  0.68413422    -0.22700
H2743       H  0.26616461  0.19782380  0.68758358     0.18500
C2744       C  0.23593513  0.19574518  0.67120606     0.26500
C2745       C  0.21919018  0.19413877  0.67019057    -0.11200
C2746       C  0.20958295  0.20620898  0.66315595    -0.25300
C2747       C  0.21715670  0.22073003  0.65842285     0.37400
C2748       C  0.23385894  0.22290442  0.66073672    -0.26900
F2749       F  0.24453399  0.18254834  0.67561374    -0.19000
H2750       H  0.21381729  0.18277299  0.67392419     0.16700
F2751       F  0.20895052  0.23223901  0.65024365    -0.22700
H2752       H  0.23923096  0.23432088  0.65722877     0.18500
C2753       C  0.31981834  0.21794482  0.70753518    -0.26800
C2754       C  0.32519205  0.20455664  0.71649963     0.06800
C2755       C  0.33213464  0.19143762  0.70814070     0.26500
C2756       C  0.33314970  0.19154112  0.69120919    -0.11300
C2757       C  0.32702777  0.20453075  0.68225973    -0.25200
C2758       C  0.32073026  0.21795683  0.69056061     0.37300
C2759       C  0.32213960  0.20370450  0.73426834     0.06800
F2760       F  0.33684889  0.17799848  0.71620153    -0.19000
H2761       H  0.33785398  0.18102119  0.68496241     0.16700
F2762       F  0.31504134  0.23081989  0.68221113    -0.22700
H2763       H  0.31452957  0.22823894  0.71368687     0.18500
C2764       C  0.33421593  0.19885996  0.74530089     0.26500
C2765       C  0.33066758  0.19731815  0.76185569    -0.11200
C2766       C  0.31522455  0.20105655  0.76770323    -0.25300
C2767       C  0.30325068  0.20604729  0.75675972     0.37400
C2768       C  0.30666056  0.20727726  0.74022777    -0.26900
F2769       F  0.34955915  0.19619232  0.74018608    -0.19000
H2770       H  0.34011809  0.19387572  0.77023223     0.16700
F2771       F  0.28821172  0.20970148  0.76214196    -0.22700
H2772       H  0.29711164  0.21087851  0.73201709     0.18500
C2773       C  0.18121475  0.36234043  0.86437125    -0.26800
C2774       C  0.18123611  0.34638930  0.87004947     0.06800
C2775       C  0.18561401  0.33380614  0.85937461     0.26500
C2776       C  0.18874299  0.33709520  0.84298155    -0.11300
C2777       C  0.18720294  0.35288997  0.83703911    -0.25200
C2778       C  0.18400175  0.36557011  0.84799449     0.37300
C2779       C  0.17435888  0.34299938  0.88628553     0.06800
F2780       F  0.18591986  0.31827459  0.86459834    -0.19000
H2781       H  0.19091054  0.32713669  0.83467661     0.16700
F2782       F  0.18222398  0.38092475  0.84256056    -0.22700
H2783       H  0.17777183  0.37217669  0.87237014     0.18500
C2784       C  0.18106756  0.34996813  0.90037489     0.26500
C2785       C  0.17310398  0.34852467  0.91529080    -0.11200
C2786       C  0.15813346  0.34039080  0.91638942    -0.25300
C2787       C  0.15163240  0.33311252  0.90227469     0.37400
C2788       C  0.15974632  0.33435328  0.88743748    -0.26900
F2789       F  0.19517387  0.35841558  0.89963173    -0.19000
H2790       H  0.17842077  0.35427974  0.92588436     0.16700
F2791       F  0.13745333  0.32477937  0.90272410    -0.22700
H2792       H  0.15428773  0.32906241  0.87666136     0.18500
C2793       C  0.18745607  0.32625237  0.71659173    -0.26800
C2794       C  0.19440274  0.33970037  0.72468204     0.06800
C2795       C  0.20059500  0.35238366  0.71516311     0.26500
C2796       C  0.19887120  0.35197860  0.69831443    -0.11300
C2797       C  0.19005119  0.33956512  0.69041718    -0.25200
C2798       C  0.18468522  0.32640743  0.69979469     0.37300
C2799       C  0.19324989  0.34135461  0.74278126     0.06800
F2800       F  0.20702296  0.36593714  0.72204796    -0.19000
H2801       H  0.20349103  0.36217057  0.69150982     0.16700
F2802       F  0.17541014  0.31444689  0.69334612    -0.22700
H2803       H  0.18312844  0.31596154  0.72341499     0.18500
C2804       C  0.17907215  0.33642072  0.75090056     0.26500
C2805       C  0.17719810  0.33939543  0.76744603    -0.11200
C2806       C  0.18894846  0.34796447  0.77636846    -0.25300
C2807       C  0.20312211  0.35303168  0.76841837     0.37400
C2808       C  0.20544779  0.34926476  0.75194235    -0.26900
F2809       F  0.16639455  0.32971823  0.74274676    -0.19000
H2810       H  0.16606003  0.33556659  0.77320483     0.16700
F2811       F  0.21427529  0.36238341  0.77620507    -0.22700
H2812       H  0.21661677  0.35305075  0.74626534     0.18500
C2813       C  0.32063549  0.39866285  0.79147578    -0.26800
C2814       C  0.32054874  0.40981634  0.77865258     0.06800
C2815       C  0.31599873  0.40444456  0.76306996     0.26500
C2816       C  0.31310240  0.38799220  0.76012863    -0.11300
C2817       C  0.31431738  0.37668805  0.77269759    -0.25200
C2818       C  0.31741298  0.38221393  0.78856866     0.37300
C2819       C  0.32825706  0.42597373  0.78075183     0.06800
F2820       F  0.31606904  0.41479841  0.75035425    -0.19000
H2821       H  0.31101354  0.38389490  0.74778088     0.16700
F2822       F  0.31905960  0.37152944  0.80089089    -0.22700
H2823       H  0.32425287  0.40254344  0.80353759     0.18500
C2824       C  0.32028021  0.44036380  0.77667411     0.26500
C2825       C  0.32874763  0.45516203  0.77669359    -0.11200
C2826       C  0.34533934  0.45581162  0.78057476    -0.25300
C2827       C  0.35304213  0.44141173  0.78529611     0.37400
C2828       C  0.34456218  0.42675022  0.78537695    -0.26900
F2829       F  0.30439993  0.44005989  0.77248455    -0.19000
H2830       H  0.32243453  0.46601755  0.77316113     0.16700
F2831       F  0.36878642  0.44136162  0.78992872    -0.22700
H2832       H  0.35094439  0.41580533  0.78853833     0.18500
C2833       C  0.29643183  0.29144501  0.77117649    -0.26800
C2834       C  0.30877225  0.28260339  0.77881948     0.06800
C2835       C  0.32277393  0.29086871  0.78409927     0.26500
C2836       C  0.32459077  0.30740076  0.78133768    -0.11300
C2837       C  0.31249051  0.31616876  0.77343336    -0.25200
C2838       C  0.29827229  0.30812704  0.76845091     0.37300
C2839       C  0.30735498  0.26479386  0.78110744     0.06800
F2840       F  0.33474052  0.28296681  0.79201318    -0.19000
H2841       H  0.33564066  0.31339914  0.78523329     0.16700
F2842       F  0.28657124  0.31619142  0.76031758    -0.22700
H2843       H  0.28559766  0.28533867  0.76688335     0.18500
C2844       C  0.29370078  0.25783042  0.78851947     0.26500
C2845       C  0.29334173  0.24125202  0.79198935    -0.11200
C2846       C  0.30652984  0.23130394  0.78812117    -0.25300
C2847       C  0.32006403  0.23824151  0.78049287     0.37400
C2848       C  0.32032717  0.25473017  0.77682886    -0.26900
F2849       F  0.28108668  0.26717048  0.79318926    -0.19000
H2850       H  0.28286873  0.23622050  0.79805867     0.16700
F2851       F  0.33353640  0.22942589  0.77763958    -0.22700
H2852       H  0.33097083  0.25977632  0.77107588     0.18500
C2853       C  0.26440809  0.35598826  0.78273738    -0.26800
C2854       C  0.26118572  0.34584662  0.79590909     0.06800
C2855       C  0.27371043  0.33655634  0.80247489     0.26500
C2856       C  0.28924044  0.33727901  0.79569772    -0.11300
C2857       C  0.29237677  0.34707409  0.78214325    -0.25200
C2858       C  0.27979696  0.35654320  0.77582270     0.37300
C2859       C  0.24444021  0.34461841  0.80196303     0.06800
F2860       F  0.27083581  0.32663305  0.81521282    -0.19000
H2861       H  0.29876430  0.32999708  0.80084943     0.16700
F2862       F  0.28211381  0.36561783  0.76236462    -0.22700
H2863       H  0.25479704  0.36310264  0.77746679     0.18500
C2864       C  0.23376290  0.33306260  0.79532066     0.26500
C2865       C  0.21714978  0.33404858  0.79839784    -0.11200
C2866       C  0.21093413  0.34689289  0.80768014    -0.25300
C2867       C  0.22182866  0.35767711  0.81535876     0.37400
C2868       C  0.23845118  0.35653759  0.81246073    -0.26900
F2869       F  0.23925659  0.32166139  0.78480930    -0.19000
H2870       H  0.20899656  0.32556013  0.79249439     0.16700
F2871       F  0.21632320  0.37027578  0.82435260    -0.22700
H2872       H  0.24654841  0.36559102  0.81756586     0.18500
C2873       C  0.20138669  0.69109142  0.39042098    -0.26800
C2874       C  0.19188831  0.68254688  0.37904929     0.06800
C2875       C  0.18626061  0.66693989  0.38302076     0.26500
C2876       C  0.18971615  0.66025901  0.39813701    -0.11300
C2877       C  0.19879908  0.66894086  0.40969546    -0.25200
C2878       C  0.20478946  0.68438800  0.40565249     0.37300
C2879       C  0.18800715  0.68947028  0.36289163     0.06800
F2880       F  0.17761367  0.65797656  0.37214797    -0.19000
H2881       H  0.18501194  0.64833386  0.40089553     0.16700
F2882       F  0.21423293  0.69283346  0.41625023    -0.22700
H2883       H  0.20601937  0.70302110  0.38757126     0.18500
C2884       C  0.20028905  0.69467936  0.35227600     0.26500
C2885       C  0.19683837  0.69699107  0.33576464    -0.11200
C2886       C  0.18119383  0.69404217  0.32973138    -0.25300
C2887       C  0.16863093  0.69086799  0.34070455     0.37400
C2888       C  0.17201329  0.68872537  0.35714952    -0.26900
F2889       F  0.21586894  0.69573001  0.35740985    -0.19000
H2890       H  0.20671708  0.69920619  0.32744155     0.16700
F2891       F  0.15339873  0.68794737  0.33519471    -0.22700
H2892       H  0.16229473  0.68515281  0.36518546     0.18500
C2893       C  0.20367944  0.70204049  0.56066636    -0.26800
C2894       C  0.19917415  0.69370015  0.57476511     0.06800
C2895       C  0.19306340  0.67783601  0.57328517     0.26500
C2896       C  0.19244782  0.67020568  0.55813843    -0.11300
C2897       C  0.19793023  0.67814304  0.54414114    -0.25200
C2898       C  0.20309042  0.69437882  0.54546771     0.37300
C2899       C  0.20287176  0.70055851  0.59105369     0.06800
F2900       F  0.18879082  0.66924315  0.58660861    -0.19000
H2901       H  0.18813643  0.65782322  0.55748282     0.16700
F2902       F  0.20862720  0.70253898  0.53235975    -0.22700
H2903       H  0.20833533  0.71429664  0.56153032     0.18500
C2904       C  0.21876433  0.70551811  0.59484559     0.26500
C2905       C  0.22322512  0.70853036  0.61094395    -0.11200
C2906       C  0.21193517  0.70682667  0.62346571    -0.25300
C2907       C  0.19579544  0.70302344  0.61963529     0.37400
C2908       C  0.19129638  0.69998261  0.60350864    -0.26900
F2909       F  0.23037720  0.70588378  0.58323954    -0.19000
H2910       H  0.23578834  0.71109289  0.61377711     0.16700
F2911       F  0.18482084  0.70054478  0.63159346    -0.22700
H2912       H  0.17900091  0.69619510  0.60086124     0.18500
C2913       C  0.18925706  0.33882297  0.39774119    -0.26800
C2914       C  0.19886818  0.34446907  0.38490702     0.06800
C2915       C  0.20960190  0.35747344  0.38778731     0.26500
C2916       C  0.21034017  0.36489727  0.40304301    -0.11300
C2917       C  0.20053502  0.35947665  0.41580315    -0.25200
C2918       C  0.19008289  0.34620574  0.41308078     0.37300
C2919       C  0.19667562  0.33799989  0.36818084     0.06800
F2920       F  0.21883279  0.36355303  0.37563492    -0.19000
H2921       H  0.21855630  0.37501351  0.40483843     0.16700
F2922       F  0.18008042  0.34087326  0.42495692    -0.22700
H2923       H  0.18086497  0.32887961  0.39578113     0.18500
C2924       C  0.18130896  0.33812007  0.36079121     0.26500
C2925       C  0.17981850  0.33580058  0.34402419    -0.11200
C2926       C  0.19353756  0.33315103  0.33445732    -0.25300
C2927       C  0.20867619  0.33156582  0.34198256     0.37400
C2928       C  0.21020562  0.33390027  0.35875036    -0.26900
F2929       F  0.16798082  0.34219429  0.36943850    -0.19000
H2930       H  0.16813641  0.33746770  0.33832047     0.16700
F2931       F  0.22218087  0.32944834  0.33290349    -0.22700
H2932       H  0.22212576  0.33359347  0.36421176     0.18500
C2933       C  0.20287790  0.35721828  0.57955951    -0.26800
C2934       C  0.19189363  0.34427114  0.58060751     0.06800
C2935       C  0.18469470  0.33819085  0.56635637     0.26500
C2936       C  0.18821771  0.34525891  0.55133023    -0.11300
C2937       C  0.19871371  0.35870296  0.55034379    -0.25200
C2938       C  0.20626126  0.36441256  0.56464031     0.37300
C2939       C  0.18700848  0.33849266  0.59685457     0.06800
F2940       F  0.17411016  0.32559840  0.56702246    -0.19000
H2941       H  0.18225360  0.34057753  0.54055715     0.16700
F2942       F  0.21694216  0.37693790  0.56428548    -0.22700
H2943       H  0.20847859  0.36210577  0.59045277     0.18500
C2944       C  0.19841880  0.33175552  0.60747974     0.26500
C2945       C  0.19492076  0.33026848  0.62404501    -0.11200
C2946       C  0.18017697  0.33587673  0.63023683    -0.25300
C2947       C  0.16826710  0.34128265  0.61934580     0.37400
C2948       C  0.17164114  0.34243796  0.60276594    -0.26900
F2949       F  0.21337326  0.32784483  0.60204087    -0.19000
H2950       H  0.20436546  0.32637800  0.63224100     0.16700
F2951       F  0.15396854  0.34698170  0.62498060    -0.22700
H2952       H  0.16275405  0.34777623  0.59477983     0.18500
C2953       C  0.21853011  0.49921230  0.49874972    -0.26800
C2954       C  0.21236666  0.50778152  0.48548630     0.06800
C2955       C  0.20636644  0.49912345  0.47200646     0.26500
C2956       C  0.20646089  0.48221742  0.47187188    -0.11300
C2957       C  0.21256877  0.47354230  0.48514056    -0.25200
C2958       C  0.21873500  0.48226713  0.49859448     0.37300
C2959       C  0.21244721  0.52572076  0.48553881     0.06800
F2960       F  0.20005583  0.50703277  0.45909442    -0.19000
H2961       H  0.20147260  0.47593582  0.46142033     0.16700
F2962       F  0.22542228  0.47453381  0.51140401    -0.22700
H2963       H  0.22345819  0.50567939  0.50913429     0.18500
C2964       C  0.20497423  0.53457070  0.49803954     0.26500
C2965       C  0.20450344  0.55149825  0.49741713    -0.11200
C2966       C  0.21143804  0.55986313  0.48432267    -0.25300
C2967       C  0.21935371  0.55096863  0.47211341     0.37400
C2968       C  0.21978729  0.53409368  0.47273562    -0.26900
F2969       F  0.19760605  0.52682964  0.51050889    -0.19000
H2970       H  0.19831828  0.55803077  0.50696255     0.16700
F2971       F  0.22699708  0.55854717  0.45972441    -0.22700
H2972       H  0.22590615  0.52750710  0.46317430     0.18500
C2973       C  0.91711838  0.18834687  0.65962010    -0.26800
C2974       C  0.90442780  0.18226215  0.66908798     0.06800
C2975       C  0.90745149  0.16971431  0.68004668     0.26500
C2976       C  0.92287423  0.16309227  0.68125259    -0.11300
C2977       C  0.93563102  0.16894642  0.67167296    -0.25200
C2978       C  0.93269129  0.18187649  0.66100259     0.37300
C2979       C  0.88771549  0.18800810  0.66695863     0.06800
F2980       F  0.89528569  0.16345021  0.68914380    -0.19000
H2981       H  0.92480313  0.15324727  0.68962754     0.16700
F2982       F  0.94460175  0.18773814  0.65134874    -0.22700
H2983       H  0.91489251  0.19793270  0.65101578     0.18500
C2984       C  0.87857099  0.18275125  0.65352495     0.26500
C2985       C  0.86177007  0.18446121  0.65356947    -0.11200
C2986       C  0.85397761  0.19170429  0.66683504    -0.25300
C2987       C  0.86325537  0.19822674  0.67959963     0.37400
C2988       C  0.88004097  0.19625551  0.67969920    -0.26900
F2989       F  0.88569972  0.17462795  0.64111973    -0.19000
H2990       H  0.85472594  0.17921714  0.64373323     0.16700
F2991       F  0.85596013  0.20491150  0.69273866    -0.22700
H2992       H  0.88694358  0.20021533  0.69020221     0.18500
C2993       C  0.12540920  0.20035368  0.67430819    -0.26800
C2994       C  0.11602235  0.19490905  0.66106142     0.06800
C2995       C  0.12289757  0.19498635  0.64548128     0.26500
C2996       C  0.13919955  0.19903440  0.64346675    -0.11300
C2997       C  0.14895374  0.20312548  0.65687342    -0.25200
C2998       C  0.14176480  0.20449748  0.67224644     0.37300
C2999       C  0.09984851  0.18739478  0.66365237     0.06800
F3000       F  0.11434989  0.18952556  0.63244593    -0.19000
H3001       H  0.14460485  0.19755987  0.63158823     0.16700
F3002       F  0.15093214  0.20803085  0.68550207    -0.22700
H3003       H  0.12030772  0.20048354  0.68640122     0.18500
C3004       C  0.09810180  0.17411600  0.67411707     0.26500
C3005       C  0.08321340  0.16608883  0.67545019    -0.11200
C3006       C  0.06970644  0.17116508  0.66649439    -0.25300
C3007       C  0.07142605  0.18453014  0.65609434     0.37400
C3008       C  0.08637093  0.19250069  0.65468750    -0.26900
F3009       F  0.11097395  0.16846585  0.68255923    -0.19000
H3010       H  0.08226750  0.15585482  0.68353615     0.16700
F3011       F  0.05890344  0.18948369  0.64673942    -0.22700
H3012       H  0.08749670  0.20256382  0.64640362     0.18500
C3013       C  0.91058818  0.85262217  0.67656805    -0.26800
C3014       C  0.90788206  0.83928310  0.68668346     0.06800
C3015       C  0.92102874  0.83259343  0.69510483     0.26500
C3016       C  0.93643091  0.83966455  0.69395300    -0.11300
C3017       C  0.93887677  0.85362883  0.68460807    -0.25200
C3018       C  0.92588343  0.85979142  0.67556744     0.37300
C3019       C  0.89102169  0.83382302  0.68957096     0.06800
F3020       F  0.91889076  0.81948641  0.70471894    -0.19000
H3021       H  0.94628214  0.83464579  0.70093869     0.16700
F3022       F  0.92790005  0.87284489  0.66585617    -0.22700
H3023       H  0.90064050  0.85797499  0.66997505     0.18500
C3024       C  0.88453231  0.83444308  0.70531398     0.26500
C3025       C  0.86784700  0.83314154  0.70761002    -0.11200
C3026       C  0.85734371  0.83118310  0.69432142    -0.25300
C3027       C  0.86389875  0.82934602  0.67870032     0.37400
C3028       C  0.88062506  0.83067747  0.67638357    -0.26900
F3029       F  0.89409459  0.83797994  0.71829183    -0.19000
H3030       H  0.86300246  0.83479603  0.71970759     0.16700
F3031       F  0.85411695  0.82803554  0.66551073    -0.22700
H3032       H  0.88538523  0.83029469  0.66415293     0.18500
C3033       C  0.12726272  0.83304811  0.69986514    -0.26800
C3034       C  0.12040096  0.83389065  0.68429211     0.06800
C3035       C  0.13043263  0.83126920  0.67071090     0.26500
C3036       C  0.14715840  0.82916134  0.67274813    -0.11300
C3037       C  0.15408987  0.82974767  0.68830920    -0.25200
C3038       C  0.14388876  0.83099426  0.70187352     0.37300
C3039       C  0.10341984  0.83957532  0.68251450     0.06800
F3040       F  0.12419338  0.83154625  0.65546580    -0.19000
H3041       H  0.15481635  0.82838397  0.66213108     0.16700
F3042       F  0.15019053  0.83143872  0.71709892    -0.22700
H3043       H  0.11993330  0.83516083  0.71053177     0.18500
C3044       C  0.09090662  0.83337791  0.69231091     0.26500
C3045       C  0.07561599  0.84058663  0.69229761    -0.11200
C3046       C  0.07257357  0.85422911  0.68272835    -0.25300
C3047       C  0.08481724  0.85997931  0.67240910     0.37400
C3048       C  0.10004599  0.85270434  0.67231318    -0.26900
F3049       F  0.09356038  0.82056680  0.70216085    -0.19000
H3050       H  0.06633504  0.83588942  0.70027019     0.16700
F3051       F  0.08209365  0.87268976  0.66244664    -0.22700
H3052       H  0.10944793  0.85784284  0.66476891     0.18500
C3053       C  0.01811236  0.03046113  0.68789648    -0.26800
C3054       C  0.00503692  0.02123111  0.68200487     0.06800
C3055       C  0.99167403  0.02924127  0.67528763     0.26500
C3056       C  0.99144445  0.04616686  0.67456344    -0.11300
C3057       C  0.00452404  0.05545697  0.68049458    -0.25200
C3058       C  0.01788581  0.04736949  0.68723252     0.37300
C3059       C  0.00523055  0.00332189  0.68337281     0.06800
F3060       F  0.97897026  0.02067911  0.66914977    -0.19000
H3061       H  0.98107273  0.05198709  0.66916552     0.16700
F3062       F  0.03050476  0.05572980  0.69377151    -0.22700
H3063       H  0.02839894  0.02454886  0.69337841     0.18500
C3064       C  0.01823156  0.99425221  0.67729935     0.26500
C3065       C  0.01834328  0.97739864  0.67888771    -0.11200
C3066       C  0.00551363  0.96922764  0.68654084    -0.25300
C3067       C  0.99261513  0.97837686  0.69282243     0.37400
C3068       C  0.99249687  0.99521988  0.69117725    -0.26900
F3069       F  0.03063482  0.00164768  0.66946298    -0.19000
H3070       H  0.02836570  0.97071869  0.67381641     0.16700
F3071       F  0.98033235  0.97117238  0.70099521    -0.22700
H3072       H  0.98253696  0.00200703  0.69625444     0.18500
loop_ 
_geom_bond_atom_site_label_1 
_geom_bond_atom_site_label_2 
_geom_bond_distance 
_geom_bond_site_symmetry_2 
_ccdc_geom_bond_type 
N1            N2   1.323       .  A
N1            C5   1.347       .  A
N1           Cu9   2.079   1_655  S
N2            C3   1.343       .  A
N2           Cu8   2.075       .  S
C3            C4   1.385       .  A
C3            H6   1.082       .  S
C4            C5   1.386       .  A
C4         C3017   1.480       .  S
C5            H7   1.082       .  S
Cu8          N11   2.075       .  S
Cu9          N19   2.079       .  S
Cu10         N12   2.082       .  S
Cu10         N18   2.083       .  S
N11          N12   1.321   1_655  A
N11          C15   1.345       .  A
N12          C13   1.346       .  A
C13          C14   1.389       .  A
C13          H16   1.082       .  S
C14          C15   1.388   1_455  A
C14        C3066   1.488       .  S
C15          H17   1.081       .  S
N18          N19   1.323       .  A
N18          C22   1.345       .  A
N19          C20   1.347       .  A
C20          C21   1.385       .  A
C20          H23   1.082       .  S
C21          C22   1.386       .  A
C21        C3046   1.482       .  S
C22          H24   1.082       .  S
N25          N26   1.323       .  A
N25          C29   1.347       .  A
N25         Cu33   2.081   1_655  S
N26          C27   1.344       .  A
N26         Cu32   2.079       .  S
C27          C28   1.385       .  A
C27          H30   1.082       .  S
C28          C29   1.387       .  A
C28        C2977   1.483       .  S
C29          H31   1.082       .  S
Cu32         N35   2.079       .  S
Cu33         N43   2.081       .  S
Cu34         N36   2.079       .  S
Cu34         N42   2.080       .  S
N35          N36   1.321   1_655  A
N35          C39   1.347       .  A
N36          C37   1.345       .  A
C37          C38   1.388       .  A
C37          H40   1.081       .  S
C38          C39   1.389   1_455  A
C38        C3057   1.489       .  S
C39          H41   1.082       .  S
N42          N43   1.322       .  A
N42          C46   1.346       .  A
N43          C44   1.347       .  A
C44          C45   1.388       .  A
C44          H47   1.081       .  S
C45          C46   1.387       .  A
C45        C3006   1.487       .  S
C46          H48   1.082       .  S
N49          N50   1.321       .  A
N49          C53   1.345       .  A
N49         Cu57   2.075       .  S
N50          C51   1.345       .  A
N50         Cu56   2.078       .  S
C51          C52   1.389       .  A
C51          H54   1.082       .  S
C52          C53   1.388       .  A
C52        C2957   1.488       .  S
C53          H55   1.081       .  S
Cu56         N59   2.078       .  S
Cu57         N67   2.076       .  S
Cu58         N60   2.079       .  S
Cu58         N66   2.079       .  S
N59          N60   1.323       .  A
N59          C63   1.344       .  A
N60          C61   1.346       .  A
C61          C62   1.385       .  A
C61          H64   1.082       .  S
C62          C63   1.386       .  A
C62        C2917   1.482       .  S
C63          H65   1.082       .  S
N66          N67   1.322       .  A
N66          C70   1.347       .  A
N67          C68   1.343       .  A
C68          C69   1.387       .  A
C68          H71   1.081       .  S
C69          C70   1.388       .  A
C69        C2937   1.487       .  S
C70          H72   1.082       .  S
N73          N74   1.322       .  A
N73          C77   1.347       .  A
N73         Cu81   2.080       .  S
N74          C75   1.345       .  A
N74         Cu80   2.078       .  S
C75          C76   1.386       .  A
C75          H78   1.082       .  S
C76          C77   1.386       .  A
C76        C2877   1.482       .  S
C77          H79   1.082       .  S
Cu80         N83   2.077       .  S
Cu81         N91   2.080       .  S
Cu82         N84   2.070       .  S
Cu82         N90   2.071       .  S
N83          N84   1.321       .  A
N83          C87   1.344       .  A
N84          C85   1.346       .  A
C85          C86   1.386       .  A
C85          H88   1.082       .  S
C86          C87   1.387       .  A
C86        C2966   1.484       .  S
C87          H89   1.081       .  S
N90          N91   1.322       .  A
N90          C94   1.342       .  A
N91          C92   1.347       .  A
C92          C93   1.388       .  A
C92          H95   1.081       .  S
C93          C94   1.385       .  A
C93        C2897   1.484       .  S
C94          H96   1.082       .  S
N97         C101   1.361       .  A
N97          C98   1.361       .  A
N97        C2857   1.444       .  S
C98          C99   1.381       .  A
C98        C2817   1.480       .  S
C99         C100   1.372       .  A
C99         H102   1.082       .  S
C100        C101   1.382       .  A
C100        H103   1.082       .  S
C101       C2837   1.481       .  S
N104        C108   1.365       .  A
N104        C105   1.361       .  A
N104       C2866   1.444       .  S
C105        C106   1.381       .  A
C105       C2777   1.479       .  S
C106        C107   1.369       .  A
C106        H109   1.082       .  S
C107        C108   1.383       .  A
C107        H110   1.082       .  S
C108       C2806   1.488       .  S
N111        C115   1.364       .  A
N111        C112   1.358       .  A
N111       C2757   1.441       .  S
C112        C113   1.379       .  A
C112       C2717   1.475       .  S
C113        C114   1.370       .  A
C113        H116   1.082       .  S
C114        C115   1.385       .  A
C114        H117   1.082       .  S
C115       C2737   1.490       .  S
N118        C122   1.361       .  A
N118        C119   1.358       .  A
N118       C2766   1.439       .  S
C119        C120   1.382       .  A
C119       C2697   1.480       .  S
C120        C121   1.376       .  A
C120        H123   1.082       .  S
C121        C122   1.383       .  A
C121        H124   1.082       .  S
C122       C2846   1.488       .  S
N125        C129   1.367       .  A
N125        C126   1.361       .  A
N125       C2686   1.441       .  S
C126        C127   1.379       .  A
C126       C2946   1.480       .  S
C127        C128   1.366       .  A
C127        H130   1.083       .  S
C128        C129   1.387       .  A
C128        H131   1.082       .  S
C129       C2797   1.497       .  S
N132        C136   1.368       .  A
N132        C133   1.364       .  A
N132       C2677   1.446       .  S
C133        C134   1.378       .  A
C133       C2997   1.480       .  S
C134        C135   1.364       .  A
C134        H137   1.083       .  S
C135        C136   1.386       .  A
C135        H138   1.082       .  S
C136       C2746   1.494       .  S
N139        N140   1.322       .  A
N139        C143   1.346       .  A
N139       Cu147   2.083   1_554  S
N140        C141   1.346       .  A
N140       Cu146   2.079   1_554  S
C141        C142   1.387       .  A
C141        H144   1.082       .  S
C142        C143   1.389       .  A
C142       C2626   1.487       .  S
C143        H145   1.081       .  S
Cu146       N149   2.080       .  S
Cu147       N157   2.083       .  S
Cu148       N150   2.092       .  S
Cu148       N156   2.092       .  S
N149        N150   1.322       .  A
N149        C153   1.347       .  A
N150        C151   1.347       .  A
C151        C152   1.392       .  A
C151        H154   1.081       .  S
C152        C153   1.389       .  A
C152       C2637   1.495       .  S
C153        H155   1.080       .  S
N156        N157   1.322       .  A
N156        C160   1.347       .  A
N157        C158   1.346       .  A
C158        C159   1.391       .  A
C158        H161   1.080   1_556  S
C159        C160   1.392       .  A
C159       C2657   1.497       .  S
C160        H162   1.081       .  S
N163        N164   1.321       .  A
N163        C167   1.348       .  A
N163       Cu171   2.084       .  S
N164        C165   1.345       .  A
N164       Cu170   2.075       .  S
C165        C166   1.386       .  A
C165        H168   1.082       .  S
C166        C167   1.389       .  A
C166       C2666   1.487       .  S
C167        H169   1.082       .  S
Cu170       N173   2.076   1_556  S
Cu171       N181   2.084       .  S
Cu172       N174   2.089       .  S
Cu172       N180   2.089       .  S
N173        N174   1.323   1_554  A
N173        C177   1.344       .  A
N174        C175   1.349   1_556  A
C175        C176   1.389       .  A
C175        H178   1.082       .  S
C176        C177   1.386       .  A
C176       C2577   1.487       .  S
C177        H179   1.081       .  S
N180        N181   1.323       .  A
N180        C184   1.349       .  A
N181        C182   1.343       .  A
C182        C183   1.389       .  A
C182        H185   1.080       .  S
C183        C184   1.391       .  A
C183       C2597   1.494       .  S
C184        H186   1.082       .  S
N187        N188   1.322       .  A
N187        C191   1.345       .  A
N187       Cu195   2.074       .  S
N188        C189   1.345       .  A
N188       Cu194   2.079       .  S
C189        C190   1.387       .  A
C189        H192   1.082       .  S
C190        C191   1.385       .  A
C190       C2537   1.482       .  S
C191        H193   1.082       .  S
Cu194       N197   2.079       .  S
Cu195       N205   2.075   1_556  S
Cu196       N198   2.080   1_554  S
Cu196       N204   2.081       .  S
N197        N198   1.320       .  A
N197        C201   1.345       .  A
N198        C199   1.346       .  A
C199        C200   1.391       .  A
C199        H202   1.081   1_556  S
C200        C201   1.392       .  A
C200       C2566   1.495       .  S
C201        H203   1.080       .  S
N204        N205   1.321       .  A
N204        C208   1.344       .  A
N205        C206   1.346       .  A
C206        C207   1.389       .  A
C206        H209   1.081       .  S
C207        C208   1.390       .  A
C207       C2517   1.491       .  S
C208        H210   1.081       .  S
N211        N212   1.321       .  A
N211        C215   1.346       .  A
N211       Cu219   2.071   1_556  S
N212        C213   1.346       .  A
N212       Cu218   2.087       .  S
C213        C214   1.389       .  A
C213        H216   1.082       .  S
C214        C215   1.386       .  A
C214       C2557   1.486       .  S
C215        H217   1.081   1_556  S
Cu218       N221   2.088       .  S
Cu219       N229   2.071       .  S
Cu220       N222   2.080       .  S
Cu220       N228   2.080   1_556  S
N221        N222   1.323       .  A
N221        C225   1.347       .  A
N222        C223   1.346       .  A
C223        C224   1.387       .  A
C223        H226   1.082       .  S
C224        C225   1.389       .  A
C224       C2786   1.489       .  S
C225        H227   1.081       .  S
N228        N229   1.321       .  A
N228        C232   1.347       .  A
N229        C230   1.343       .  A
C230        C231   1.387       .  A
C230        H233   1.081       .  S
C231        C232   1.389       .  A
C231       C2506   1.486       .  S
C232        H234   1.082       .  S
N235        N236   1.323       .  A
N235        C239   1.348       .  A
N235       Cu243   2.085   1_565  S
N236        C237   1.348       .  A
N236       Cu242   2.097       .  S
C237        C238   1.388       .  A
C237        H240   1.082       .  S
C238        C239   1.387       .  A
C238       C2437   1.489       .  S
C239        H241   1.082       .  S
Cu242       N245   2.097   1_565  S
Cu243       N253   2.084       .  S
Cu244       N246   2.093       .  S
Cu244       N252   2.093       .  S
N245        N246   1.323       .  A
N245        C249   1.350   1_545  A
N246        C247   1.348       .  A
C247        C248   1.390       .  A
C247        H250   1.081       .  S
C248        C249   1.391   1_545  A
C248       C2477   1.496       .  S
C249        H251   1.082       .  S
N252        N253   1.323       .  A
N252        C256   1.348       .  A
N253        C254   1.348       .  A
C254        C255   1.386       .  A
C254        H257   1.082       .  S
C255        C256   1.389       .  A
C255       C2466   1.488       .  S
C256        H258   1.082       .  S
N259        N260   1.323       .  A
N259        C263   1.348       .  A
N259       Cu267   2.083   1_565  S
N260        C261   1.345       .  A
N260       Cu266   2.089       .  S
C261        C262   1.388       .  A
C261        H264   1.081       .  S
C262        C263   1.387       .  A
C262       C2397   1.487       .  S
C263        H265   1.082       .  S
Cu266       N269   2.089   1_565  S
Cu267       N277   2.082       .  S
Cu268       N270   2.091       .  S
Cu268       N276   2.091       .  S
N269        N270   1.320       .  A
N269        C273   1.348       .  A
N270        C271   1.348       .  A
C271        C272   1.393       .  A
C271        H274   1.081       .  S
C272        C273   1.394       .  A
C272       C2486   1.503       .  S
C273        H275   1.080   1_545  S
N276        N277   1.323       .  A
N276        C280   1.345       .  A
N277        C278   1.349       .  A
C278        C279   1.386       .  A
C278        H281   1.082       .  S
C279        C280   1.386       .  A
C279       C2426   1.484       .  S
C280        H282   1.082       .  S
N283        N284   1.322       .  A
N283        C287   1.346       .  A
N283       Cu291   2.087       .  S
N284        C285   1.345       .  A
N284       Cu290   2.071       .  S
C285        C286   1.386       .  A
C285        H288   1.082       .  S
C286        C287   1.388       .  A
C286       C2366   1.486       .  S
C287        H289   1.081       .  S
Cu290       N293   2.070       .  S
Cu291       N301   2.088       .  S
Cu292       N294   2.078       .  S
Cu292       N300   2.079       .  S
N293        N294   1.319       .  A
N293        C297   1.343       .  A
N294        C295   1.345       .  A
C295        C296   1.393       .  A
C295        H298   1.081       .  S
C296        C297   1.392       .  A
C296       C2386   1.497       .  S
C297        H299   1.078       .  S
N300        N301   1.322       .  A
N300        C304   1.345       .  A
N301        C302   1.349       .  A
C302        C303   1.389       .  A
C302        H305   1.082       .  S
C303        C304   1.387       .  A
C303       C2337   1.489       .  S
C304        H306   1.081       .  S
N307        N308   1.321       .  A
N307        C311   1.347       .  A
N307       Cu315   2.081       .  S
N308        C309   1.342       .  A
N308       Cu314   2.064       .  S
C309        C310   1.384       .  A
C309        H312   1.082       .  S
C310        C311   1.389       .  A
C310       C2297   1.483       .  S
C311        H313   1.081       .  S
Cu314       N317   2.064       .  S
Cu315       N325   2.081       .  S
Cu316       N318   2.084       .  S
Cu316       N324   2.085       .  S
N317        N318   1.321       .  A
N317        C321   1.343       .  A
N318        C319   1.346       .  A
C319        C320   1.389       .  A
C319        H322   1.082       .  S
C320        C321   1.385       .  A
C320       C2377   1.485       .  S
C321        H323   1.081       .  S
N324        N325   1.323       .  A
N324        C328   1.346       .  A
N325        C326   1.346       .  A
C326        C327   1.387       .  A
C326        H329   1.081       .  S
C327        C328   1.388       .  A
C327       C2317   1.488       .  S
C328        H330   1.082       .  S
N331        C335   1.358       .  A
N331        C332   1.354       .  A
N331       C2286   1.440       .  S
C332        C333   1.382       .  A
C332       C2986   1.473       .  S
C333        C334   1.375       .  A
C333        H336   1.082       .  S
C334        C335   1.382       .  A
C334        H337   1.082       .  S
C335       C2257   1.479       .  S
N338        C342   1.358       .  A
N338        C339   1.356       .  A
N338       C2277   1.440       .  S
C339        C340   1.382       .  A
C339       C2357   1.472       .  S
C340        C341   1.373       .  A
C340        H343   1.082       .  S
C341        C342   1.381       .  A
C341        H344   1.082       .  S
C342       C2237   1.479       .  S
N345        C349   1.369       .  A
N345        C346   1.367       .  A
N345       C2226   1.455       .  S
C346        C347   1.381       .  A
C346       C2177   1.483       .  S
C347        C348   1.365       .  A
C347        H350   1.083       .  S
C348        C349   1.380       .  A
C348        H351   1.082       .  S
C349       C2206   1.480       .  S
N352        C356   1.363       .  A
N352        C353   1.361       .  A
N352       C2217   1.450       .  S
C353        C354   1.383       .  A
C353       C2546   1.476       .  S
C354        C355   1.368       .  A
C354        H357   1.082       .  S
C355        C356   1.380       .  A
C355        H358   1.082       .  S
C356       C2246   1.475       .  S
N359        C363   1.361       .  A
N359        C360   1.361       .  A
N359       C2157   1.444       .  S
C360        C361   1.384       .  A
C360       C2137   1.482       .  S
C361        C362   1.370       .  A
C361        H364   1.082       .  S
C362        C363   1.381       .  A
C362        H365   1.082       .  S
C363       C2266   1.480       .  S
N366        C370   1.359       .  A
N366        C367   1.358       .  A
N366       C2166   1.440       .  S
C367        C368   1.383       .  A
C367       C2457   1.477       .  S
C368        C369   1.374       .  A
C368        H371   1.082       .  S
C369        C370   1.381       .  A
C369        H372   1.082       .  S
C370       C2197   1.482       .  S
N373        N374   1.325       .  A
N373        C377   1.350       .  A
N373       Cu381   2.099       .  S
N374        C375   1.347       .  A
N374       Cu380   2.098       .  S
C375        C376   1.387       .  A
C375        H378   1.082       .  S
C376        C377   1.388       .  A
C376       C2106   1.490       .  S
C377        H379   1.082       .  S
Cu380       N383   2.096       .  S
Cu381       N391   2.098       .  S
Cu382       N384   2.067       .  S
Cu382       N390   2.067       .  S
N383        N384   1.321       .  A
N383        C387   1.350       .  A
N384        C385   1.344       .  A
C385        C386   1.385       .  A
C385        H388   1.081       .  S
C386        C387   1.393       .  A
C386       C2126   1.490       .  S
C387        H389   1.082       .  S
N390        N391   1.321       .  A
N390        C394   1.342       .  A
N391        C392   1.351       .  A
C392        C393   1.394       .  A
C392        H395   1.082       .  S
C393        C394   1.386       .  A
C393       C2077   1.493       .  S
C394        H396   1.081       .  S
N397        N398   1.322       .  A
N397        C401   1.348       .  A
N397       Cu405   2.078       .  S
N398        C399   1.344       .  A
N398       Cu404   2.079       .  S
C399        C400   1.385       .  A
C399        H402   1.082       .  S
C400        C401   1.386       .  A
C400       C2146   1.482       .  S
C401        H403   1.082       .  S
Cu404       N407   2.079       .  S
Cu405       N415   2.078       .  S
Cu406       N408   2.086       .  S
Cu406       N414   2.087       .  S
N407        N408   1.321       .  A
N407        C411   1.346       .  A
N408        C409   1.347       .  A
C409        C410   1.391       .  A
C409        H412   1.081       .  S
C410        C411   1.390       .  A
C410       C2117   1.493       .  S
C411        H413   1.081       .  S
N414        N415   1.323       .  A
N414        C418   1.347       .  A
N415        C416   1.346       .  A
C416        C417   1.384       .  A
C416        H419   1.082       .  S
C417        C418   1.387       .  A
C417       C2726   1.482       .  S
C418        H420   1.082       .  S
N421        C425   1.365       .  A
N421        C422   1.363       .  A
N421       C2057   1.444       .  S
C422        C423   1.380       .  A
C422       C2346   1.480       .  S
C423        C424   1.370       .  A
C423        H426   1.082       .  S
C424        C425   1.383       .  A
C424        H427   1.082       .  S
C425       C2037   1.490       .  S
N428        C432   1.360       .  A
N428        C429   1.360       .  A
N428       C2066   1.441       .  S
C429        C430   1.382       .  A
C429       C1997   1.478       .  S
C430        C431   1.372       .  A
C430        H433   1.082       .  S
C431        C432   1.381       .  A
C431        H434   1.082       .  S
C432       C2017   1.483       .  S
N435        C439   1.361       .  A
N435        C436   1.361       .  A
N435       C1977   1.443       .  S
C436        C437   1.385       .  A
C436       C1937   1.483       .  S
C437        C438   1.371       .  A
C437        H440   1.082       .  S
C438        C439   1.380       .  A
C438        H441   1.082       .  S
C439       C1966   1.484       .  S
N442        C446   1.361       .  A
N442        C443   1.357       .  A
N442       C1986   1.439       .  S
C443        C444   1.381       .  A
C443       C2526   1.477       .  S
C444        C445   1.372       .  A
C444        H447   1.082       .  S
C445        C446   1.382       .  A
C445        H448   1.082       .  S
C446       C2046   1.485       .  S
N449        C453   1.360       .  A
N449        C450   1.359       .  A
N449       C1917   1.437       .  S
C450        C451   1.382       .  A
C450       C2097   1.482       .  S
C451        C452   1.374       .  A
C451        H454   1.082       .  S
C452        C453   1.382       .  A
C452        H455   1.082       .  S
C453       C2026   1.486       .  S
N456        C460   1.360       .  A
N456        C457   1.356       .  A
N456       C1926   1.441       .  S
C457        C458   1.381       .  A
C457       C2417   1.476       .  S
C458        C459   1.376       .  A
C458        H461   1.082       .  S
C459        C460   1.384       .  A
C459        H462   1.082       .  S
C460       C1957   1.486       .  S
N463        N464   1.322       .  A
N463        C467   1.347       .  A
N463       Cu471   2.082   1_565  S
N464        C465   1.346       .  A
N464       Cu470   2.080   1_565  S
C465        C466   1.387       .  A
C465        H468   1.082       .  S
C466        C467   1.387       .  A
C466       C1877   1.485       .  S
C467        H469   1.082       .  S
Cu470       N473   2.080       .  S
Cu471       N481   2.083       .  S
Cu472       N474   2.098       .  S
Cu472       N480   2.098       .  S
N473        N474   1.322       .  A
N473        C477   1.345       .  A
N474        C475   1.351       .  A
C475        C476   1.393       .  A
C475        H478   1.081       .  S
C476        C477   1.387       .  A
C476       C1897   1.494       .  S
C477        H479   1.082   1_545  S
N480        N481   1.323       .  A
N480        C484   1.347       .  A
N481        C482   1.349       .  A
C482        C483   1.388       .  A
C482        H485   1.082       .  S
C483        C484   1.391       .  A
C483       C2706   1.493       .  S
C484        H486   1.081       .  S
N487        N488   1.324       .  A
N487        C491   1.349       .  A
N487       Cu495   2.090   1_565  S
N488        C489   1.345       .  A
N488       Cu494   2.091       .  S
C489        C490   1.388       .  A
C489        H492   1.081       .  S
C490        C491   1.389       .  A
C490       C1857   1.491       .  S
C491        H493   1.082       .  S
Cu494       N497   2.091   1_565  S
Cu495       N505   2.091       .  S
Cu496       N498   2.081       .  S
Cu496       N504   2.082       .  S
N497        N498   1.320       .  A
N497        C501   1.349       .  A
N498        C499   1.346       .  A
C499        C500   1.390       .  A
C499        H502   1.081       .  S
C500        C501   1.393       .  A
C500       C1906   1.497       .  S
C501        H503   1.081   1_545  S
N504        N505   1.322       .  A
N504        C508   1.344       .  A
N505        C506   1.350       .  A
C506        C507   1.391       .  A
C506        H509   1.081       .  S
C507        C508   1.387       .  A
C507       C1837   1.492       .  S
C508        H510   1.082       .  S
N511        N512   1.324       .  A
N511        C515   1.349       .  A
N511       Cu519   2.097       .  S
N512        C513   1.344       .  A
N512       Cu518   2.082       .  S
C513        C514   1.385       .  A
C513        H516   1.082       .  S
C514        C515   1.391       .  A
C514       C2186   1.490       .  S
C515        H517   1.081       .  S
Cu518       N521   2.081       .  S
Cu519       N529   2.096       .  S
Cu520       N522   2.078       .  S
Cu520       N528   2.077       .  S
N521        N522   1.318       .  A
N521        C525   1.348       .  A
N522        C523   1.345       .  A
C523        C524   1.393       .  A
C523        H526   1.081       .  S
C524        C525   1.395       .  A
C524       C1817   1.501       .  S
C525        H527   1.080       .  S
N528        N529   1.322       .  A
N528        C532   1.341       .  A
N529        C530   1.352       .  A
C530        C531   1.395       .  A
C530        H533   1.081       .  S
C531        C532   1.388       .  A
C531       C1797   1.497       .  S
C532        H534   1.081       .  S
N535        N536   1.323       .  A
N535        C539   1.349       .  A
N535       Cu543   2.089       .  S
N536        C537   1.344       .  A
N536       Cu542   2.090       .  S
C537        C538   1.390       .  A
C537        H540   1.081       .  S
C538        C539   1.391       .  A
C538       C1777   1.495       .  S
C539        H541   1.081       .  S
Cu542       N545   2.090       .  S
Cu543       N553   2.089       .  S
Cu544       N546   2.078       .  S
Cu544       N552   2.078       .  S
N545        N546   1.320       .  A
N545        C549   1.347       .  A
N546        C547   1.348       .  A
C547        C548   1.389       .  A
C547        H550   1.082       .  S
C548        C549   1.392       .  A
C548       C1826   1.494       .  S
C549        H551   1.081       .  S
N552        N553   1.322       .  A
N552        C556   1.342       .  A
N553        C554   1.350       .  A
C554        C555   1.391       .  A
C554        H557   1.082       .  S
C555        C556   1.387       .  A
C555       C2826   1.491       .  S
C556        H558   1.080       .  S
N559        C563   1.356       .  A
N559        C560   1.353       .  A
N559       C1757   1.438       .  S
C560        C561   1.382       .  A
C560       C2906   1.471       .  S
C561        C562   1.375       .  A
C561        H564   1.082       .  S
C562        C563   1.382       .  A
C562        H565   1.082       .  S
C563       C1737   1.478       .  S
N566        C570   1.357       .  A
N566        C567   1.359       .  A
N566       C1766   1.439       .  S
C567        C568   1.385       .  A
C567       C3037   1.482       .  S
C568        C569   1.373       .  A
C568        H571   1.082       .  S
C569        C570   1.378       .  A
C569        H572   1.082       .  S
C570       C1717   1.474       .  S
N573        C577   1.362       .  A
N573        C574   1.358       .  A
N573       C1697   1.438       .  S
C574        C575   1.380       .  A
C574       C1677   1.478       .  S
C575        C576   1.373       .  A
C575        H578   1.082       .  S
C576        C577   1.384       .  A
C576        H579   1.082       .  S
C577       C1726   1.489       .  S
N580        C584   1.357       .  A
N580        C581   1.358       .  A
N580       C1706   1.437       .  S
C581        C582   1.384       .  A
C581       C1886   1.480       .  S
C582        C583   1.373       .  A
C582        H585   1.082       .  S
C583        C584   1.381       .  A
C583        H586   1.082       .  S
C584       C1657   1.479       .  S
N587        C591   1.357       .  A
N587        C588   1.357       .  A
N587       C1646   1.437       .  S
C588        C589   1.385       .  A
C588       C1786   1.483       .  S
C589        C590   1.375       .  A
C589        H592   1.082       .  S
C590        C591   1.381       .  A
C590        H593   1.082       .  S
C591       C1666   1.481       .  S
N594        C598   1.360       .  A
N594        C595   1.355       .  A
N594       C1637   1.440       .  S
C595        C596   1.381       .  A
C595       C2606   1.473       .  S
C596        C597   1.374       .  A
C596        H599   1.082       .  S
C597        C598   1.383       .  A
C597        H600   1.082       .  S
C598       C1746   1.484       .  S
N601        C605   1.362       .  A
N601        C602   1.357       .  A
N601       C1617   1.442       .  S
C602        C603   1.383       .  A
C602       C1806   1.479       .  S
C603        C604   1.373       .  A
C603        H606   1.082       .  S
C604        C605   1.382       .  A
C604        H607   1.082       .  S
C605       C1597   1.486       .  S
N608        C612   1.360       .  A
N608        C609   1.357       .  A
N608       C1626   1.440       .  S
C609        C610   1.382       .  A
C609       C2646   1.476       .  S
C610        C611   1.373       .  A
C610        H613   1.082       .  S
C611        C612   1.381       .  A
C611        H614   1.082       .  S
C612       C1577   1.481       .  S
N615        C619   1.360       .  A
N615        C616   1.358       .  A
N615       C1557   1.439       .  S
C616        C617   1.381       .  A
C616       C2326   1.476       .  S
C617        C618   1.372       .  A
C617        H620   1.082       .  S
C618        C619   1.382       .  A
C618        H621   1.082       .  S
C619       C1586   1.485       .  S
N622        C626   1.359       .  A
N622        C623   1.358       .  A
N622       C1566   1.443       .  S
C623        C624   1.384       .  A
C623       C3026   1.480       .  S
C624        C625   1.374       .  A
C624        H627   1.082       .  S
C625        C626   1.381       .  A
C625        H628   1.082       .  S
C626       C1537   1.480       .  S
N629        C633   1.358       .  A
N629        C630   1.355       .  A
N629       C1517   1.438       .  S
C630        C631   1.382       .  A
C630       C1506   1.477       .  S
C631        C632   1.377       .  A
C631        H634   1.082       .  S
C632        C633   1.382       .  A
C632        H635   1.082       .  S
C633       C1546   1.483       .  S
N636        C640   1.355       .  A
N636        C637   1.357       .  A
N636       C1526   1.437       .  S
C637        C638   1.384       .  A
C637       C2446   1.477       .  S
C638        C639   1.375       .  A
C638        H641   1.082       .  S
C639        C640   1.379       .  A
C639        H642   1.082       .  S
C640       C1606   1.475       .  S
N643        N644   1.321       .  A
N643        C647   1.347       .  A
N643       Cu651   2.088       .  S
N644        C645   1.348       .  A
N644       Cu650   2.091       .  S
C645        C646   1.393       .  A
C645        H648   1.080       .  S
C646        C647   1.392       .  A
C646       C1486   1.500       .  S
C647        H649   1.081       .  S
Cu650       N653   2.091       .  S
Cu651       N661   2.088       .  S
Cu652       N654   2.084       .  S
Cu652       N660   2.084       .  S
N653        N654   1.323       .  A
N653        C657   1.346       .  A
N654        C655   1.348       .  A
C655        C656   1.387       .  A
C655        H658   1.082       .  S
C656        C657   1.388       .  A
C656       C1437   1.487       .  S
C657        H659   1.082       .  S
N660        N661   1.322       .  A
N660        C664   1.347       .  A
N661        C662   1.346       .  A
C662        C663   1.389       .  A
C662        H665   1.082       .  S
C663        C664   1.389       .  A
C663       C1466   1.491       .  S
C664        H666   1.081       .  S
N667        N668   1.321       .  A
N667        C671   1.347       .  A
N667       Cu675   2.090       .  S
N668        C669   1.347       .  A
N668       Cu674   2.087       .  S
C669        C670   1.392       .  A
C669        H672   1.080       .  S
C670        C671   1.393       .  A
C670       C1477   1.500       .  S
C671        H673   1.081       .  S
Cu674       N677   2.087       .  S
Cu675       N685   2.091       .  S
Cu676       N678   2.089       .  S
Cu676       N684   2.090       .  S
N677        N678   1.323       .  A
N677        C681   1.346       .  A
N678        C679   1.349       .  A
C679        C680   1.388       .  A
C679        H682   1.082       .  S
C680        C681   1.387       .  A
C680       C1497   1.487       .  S
C681        H683   1.082       .  S
N684        N685   1.324       .  A
N684        C688   1.349       .  A
N685        C686   1.347       .  A
C686        C687   1.387       .  A
C686        H689   1.082       .  S
C687        C688   1.387       .  A
C687       C1686   1.487       .  S
C688        H690   1.082       .  S
N691        C695   1.365       .  A
N691        C692   1.364       .  A
N691       C1417   1.452       .  S
C692        C693   1.382       .  A
C692       C1457   1.481       .  S
C693        C694   1.370       .  A
C693        H696   1.082       .  S
C694        C695   1.379       .  A
C694        H697   1.082       .  S
C695       C1406   1.480       .  S
N698        C702   1.367       .  A
N698        C699   1.364       .  A
N698       C1426   1.452       .  S
C699        C700   1.383       .  A
C699       C2406   1.482       .  S
C700        C701   1.369       .  A
C700        H703   1.082       .  S
C701        C702   1.380       .  A
C701        H704   1.082       .  S
C702       C1377   1.482       .  S
N705        C709   1.363       .  A
N705        C706   1.360       .  A
N705       C1357   1.447       .  S
C706        C707   1.381       .  A
C706       C2306   1.475       .  S
C707        C708   1.370       .  A
C707        H710   1.082       .  S
C708        C709   1.381       .  A
C708        H711   1.082       .  S
C709       C1346   1.479       .  S
N712        C716   1.359       .  A
N712        C713   1.359       .  A
N712       C1366   1.439       .  S
C713        C714   1.385       .  A
C713       C1317   1.484       .  S
C714        C715   1.374       .  A
C714        H717   1.082       .  S
C715        C716   1.380       .  A
C715        H718   1.082       .  S
C716       C1397   1.482       .  S
N719        C723   1.360       .  A
N719        C720   1.358       .  A
N719       C1297   1.440       .  S
C720        C721   1.382       .  A
C720       C1277   1.478       .  S
C721        C722   1.374       .  A
C721        H724   1.082       .  S
C722        C723   1.381       .  A
C722        H725   1.082       .  S
C723       C1386   1.483       .  S
N726        C730   1.361       .  A
N726        C727   1.357       .  A
N726       C1306   1.440       .  S
C727        C728   1.380       .  A
C727       C2617   1.475       .  S
C728        C729   1.371       .  A
C728        H731   1.082       .  S
C729        C730   1.384       .  A
C729        H732   1.082       .  S
C730       C1337   1.485       .  S
N733        N734   1.322       .  A
N733        C737   1.348       .  A
N733       Cu741   2.087       .  S
N734        C735   1.348       .  A
N734       Cu740   2.090       .  S
C735        C736   1.390       .  A
C735        H738   1.082       .  S
C736        C737   1.390       .  A
C736       C1217   1.494       .  S
C737        H739   1.081       .  S
Cu740       N743   2.090       .  S
Cu741       N751   2.086       .  S
Cu742       N744   2.087       .  S
Cu742       N750   2.087       .  S
N743        N744   1.322       .  A
N743        C747   1.346       .  A
N744        C745   1.349       .  A
C745        C746   1.390       .  A
C745        H748   1.082       .  S
C746        C747   1.391       .  A
C746       C1257   1.495       .  S
C747        H749   1.081       .  S
N750        N751   1.323       .  A
N750        C754   1.346       .  A
N751        C752   1.348       .  A
C752        C753   1.387       .  A
C752        H755   1.082       .  S
C753        C754   1.388       .  A
C753       C1237   1.488       .  S
C754        H756   1.082       .  S
N757        N758   1.324       .  A
N757        C761   1.349       .  A
N757       Cu765   2.088       .  S
N758        C759   1.345       .  A
N758       Cu764   2.087       .  S
C759        C760   1.385       .  A
C759        H762   1.082       .  S
C760        C761   1.386       .  A
C760       C1946   1.483       .  S
C761        H763   1.082       .  S
Cu764       N767   2.087       .  S
Cu765       N775   2.088       .  S
Cu766       N768   2.080       .  S
Cu766       N774   2.080       .  S
N767        N768   1.321       .  A
N767        C771   1.348       .  A
N768        C769   1.346       .  A
C769        C770   1.389       .  A
C769        H772   1.081       .  S
C770        C771   1.392       .  A
C770       C1266   1.494       .  S
C771        H773   1.082       .  S
N774        N775   1.322       .  A
N774        C778   1.344       .  A
N775        C776   1.349       .  A
C776        C777   1.390       .  A
C776        H779   1.081       .  S
C777        C778   1.387       .  A
C777       C1286   1.490       .  S
C778        H780   1.082       .  S
N781        C785   1.360       .  A
N781        C782   1.359       .  A
N781       C1197   1.443       .  S
C782        C783   1.383       .  A
C782       C1446   1.478       .  S
C783        C784   1.372       .  A
C783        H786   1.082       .  S
C784        C785   1.380       .  A
C784        H787   1.082       .  S
C785       C1177   1.478       .  S
N788        C792   1.359       .  A
N788        C789   1.358       .  A
N788       C1206   1.444       .  S
C789        C790   1.383       .  A
C789       C1866   1.477       .  S
C790        C791   1.375       .  A
C790        H793   1.082       .  S
C791        C792   1.381       .  A
C791        H794   1.082       .  S
C792       C1157   1.477       .  S
N795        C799   1.365       .  A
N795        C796   1.357       .  A
N795       C1137   1.439       .  S
C796        C797   1.379       .  A
C796       C2886   1.476       .  S
C797        C798   1.367       .  A
C797        H800   1.083       .  S
C798        C799   1.386       .  A
C798        H801   1.082       .  S
C799       C1126   1.494       .  S
N802        C806   1.357       .  A
N802        C803   1.360       .  A
N802       C1146   1.444       .  S
C803        C804   1.385       .  A
C803       C1106   1.481       .  S
C804        C805   1.373       .  A
C804        H807   1.082       .  S
C805        C806   1.379       .  A
C805        H808   1.082       .  S
C806       C1186   1.473       .  S
N809        C813   1.359       .  A
N809        C810   1.356       .  A
N809       C1086   1.438       .  S
C810        C811   1.381       .  A
C810       C1246   1.475       .  S
C811        C812   1.372       .  A
C811        H814   1.082       .  S
C812        C813   1.383       .  A
C812        H815   1.082       .  S
C813       C1166   1.480       .  S
N816        C820   1.362       .  A
N816        C817   1.359       .  A
N816       C1077   1.441       .  S
C817        C818   1.383       .  A
C817       C2586   1.482       .  S
C818        C819   1.370       .  A
C818        H821   1.082       .  S
C819        C820   1.384       .  A
C819        H822   1.082       .  S
C820       C1117   1.487       .  S
N823        N824   1.324       .  A
N823        C827   1.350       .  A
N823       Cu831   2.098       .  S
N824        C825   1.344       .  A
N824       Cu830   2.079       .  S
C825        C826   1.384       .  A
C825        H828   1.082       .  S
C826        C827   1.390       .  A
C826       C1097   1.487       .  S
C827        H829   1.082       .  S
Cu830       N833   2.078       .  S
Cu831       N841   2.097   1_455  S
Cu832       N834   2.080       .  S
Cu832       N840   2.081       .  S
N833        N834   1.320   1_455  A
N833        C837   1.346       .  A
N834        C835   1.347       .  A
C835        C836   1.390   1_655  A
C835        H838   1.082       .  S
C836        C837   1.389       .  A
C836       C1057   1.490       .  S
C837        H839   1.081       .  S
N840        N841   1.321       .  A
N840        C844   1.342       .  A
N841        C842   1.351       .  A
C842        C843   1.396       .  A
C842        H845   1.079       .  S
C843        C844   1.391       .  A
C843       C1326   1.503       .  S
C844        H846   1.080       .  S
N847        N848   1.321       .  A
N847        C851   1.348       .  A
N847       Cu855   2.080   1_655  S
N848        C849   1.345       .  A
N848       Cu854   2.078       .  S
C849        C850   1.387       .  A
C849        H852   1.082       .  S
C850        C851   1.388       .  A
C850       C2006   1.486       .  S
C851        H853   1.082       .  S
Cu854       N857   2.077   1_655  S
Cu855       N865   2.081       .  S
Cu856       N858   2.091       .  S
Cu856       N864   2.091       .  S
N857        N858   1.321       .  A
N857        C861   1.344   1_455  A
N858        C859   1.349       .  A
C859        C860   1.392       .  A
C859        H862   1.082       .  S
C860        C861   1.387   1_455  A
C860       C1066   1.491       .  S
C861        H863   1.081       .  S
N864        N865   1.324       .  A
N864        C868   1.347       .  A
N865        C866   1.346       .  A
C866        C867   1.385       .  A
C866        H869   1.082       .  S
C867        C868   1.387       .  A
C867       C1037   1.484       .  S
C868        H870   1.082       .  S
N871        C875   1.370       .  A
N871        C872   1.365       .  A
N871       C1017   1.453       .  S
C872        C873   1.382       .  A
C872       C1226   1.485       .  S
C873        C874   1.369       .  A
C873        H876   1.082       .  S
C874        C875   1.379       .  A
C874        H877   1.082       .  S
C875        C997   1.484       .  S
N878        C882   1.367       .  A
N878        C879   1.364       .  A
N878       C1026   1.456       .  S
C879        C880   1.382       .  A
C879       C2497   1.479       .  S
C880        C881   1.367       .  A
C880        H883   1.083       .  S
C881        C882   1.380       .  A
C881        H884   1.082       .  S
C882        C977   1.475       .  S
N885        C889   1.366       .  A
N885        C886   1.365       .  A
N885        C957   1.451       .  S
C886        C887   1.383       .  A
C886       C2086   1.485       .  S
C887        C888   1.371       .  A
C887        H890   1.082       .  S
C888        C889   1.379       .  A
C888        H891   1.082       .  S
C889        C937   1.483       .  S
N892        C896   1.367       .  A
N892        C893   1.363       .  A
N892        C966   1.450       .  S
C893        C894   1.383       .  A
C893       C1846   1.483       .  S
C894        C895   1.372       .  A
C894        H897   1.082       .  S
C895        C896   1.379       .  A
C895        H898   1.082       .  S
C896       C1006   1.485       .  S
N899        C903   1.362       .  A
N899        C900   1.358       .  A
N899        C917   1.439       .  S
C900        C901   1.382       .  A
C900       C1046   1.479       .  S
C901        C902   1.373       .  A
C901        H904   1.082       .  S
C902        C903   1.383       .  A
C902        H905   1.082       .  S
C903        C946   1.489       .  S
N906        C910   1.356       .  A
N906        C907   1.354       .  A
N906        C926   1.438       .  S
C907        C908   1.383       .  A
C907       C2926   1.471       .  S
C908        C909   1.375       .  A
C908        H911   1.082       .  S
C909        C910   1.380       .  A
C909        H912   1.082       .  S
C910        C986   1.475       .  S
C913        C914   1.407       .  A
C913        C918   1.396       .  A
C913        H923   1.083       .  S
C914        C915   1.408       .  A
C914        C919   1.487       .  S
C915        C916   1.403       .  A
C915        F920   1.357       .  S
C916        C917   1.404       .  A
C916        H921   1.081       .  S
C917        C918   1.401       .  A
C918        F922   1.357       .  S
C919        C924   1.408       .  A
C919        C928   1.407       .  A
C924        C925   1.395       .  A
C924        F929   1.358       .  S
C925        C926   1.400       .  A
C925        H930   1.083       .  S
C926        C927   1.405       .  A
C927        C928   1.404       .  A
C927        F931   1.356       .  S
C928        H932   1.083       .  S
C933        C934   1.409       .  A
C933        C938   1.405       .  A
C933        H943   1.083       .  S
C934        C935   1.409       .  A
C934        C939   1.492       .  S
C935        C936   1.396       .  A
C935        F940   1.358       .  S
C936        C937   1.401       .  A
C936        H941   1.084       .  S
C937        C938   1.406       .  A
C938        F942   1.357       .  S
C939        C944   1.407       .  A
C939        C948   1.407       .  A
C944        C945   1.400       .  A
C944        F949   1.357       .  S
C945        C946   1.407       .  A
C945        H950   1.083       .  S
C946        C947   1.406       .  A
C947        C948   1.399       .  A
C947        F951   1.355       .  S
C948        H952   1.083       .  S
C953        C954   1.411       .  A
C953        C958   1.398       .  A
C953        H963   1.080       .  S
C954        C955   1.415       .  A
C954        C959   1.509       .  S
C955        C956   1.398       .  A
C955        F960   1.356       .  S
C956        C957   1.405       .  A
C956        H961   1.081       .  S
C957        C958   1.407       .  A
C958        F962   1.355       .  S
C959        C964   1.415       .  A
C959        C968   1.413       .  A
C964        C965   1.393       .  A
C964        F969   1.356       .  S
C965        C966   1.398       .  A
C965        H970   1.075       .  S
C966        C967   1.409       .  A
C967        C968   1.404       .  A
C967        F971   1.355       .  S
C968        H972   1.080       .  S
C973        C974   1.409       .  A
C973        C978   1.402       .  A
C973        H983   1.083       .  S
C974        C975   1.408       .  A
C974        C979   1.486       .  S
C975        C976   1.394       .  A
C975        F980   1.358       .  S
C976        C977   1.402       .  A
C976        H981   1.084       .  S
C977        C978   1.403       .  A
C978        F982   1.357       .  S
C979        C984   1.408       .  A
C979        C988   1.407       .  A
C984        C985   1.398       .  A
C984        F989   1.357       .  S
C985        C986   1.402       .  A
C985        H990   1.083       .  S
C986        C987   1.403       .  A
C987        C988   1.398       .  A
C987        F991   1.357       .  S
C988        H992   1.083       .  S
C993        C994   1.411       .  A
C993        C998   1.406       .  A
C993       H1003   1.083       .  S
C994        C995   1.412       .  A
C994        C999   1.501       .  S
C995        C996   1.397       .  A
C995       F1000   1.357       .  S
C996        C997   1.401       .  A
C996       H1001   1.083       .  S
C997        C998   1.405       .  A
C998       F1002   1.357       .  S
C999       C1004   1.413       .  A
C999       C1008   1.410       .  A
C1004      C1005   1.398       .  A
C1004      F1009   1.357       .  S
C1005      C1006   1.401       .  A
C1005      H1010   1.083       .  S
C1006      C1007   1.404       .  A
C1007      C1008   1.405       .  A
C1007      F1011   1.357       .  S
C1008      H1012   1.083       .  S
C1013      C1014   1.411       .  A
C1013      C1018   1.395       .  A
C1013      H1023   1.079       .  S
C1014      C1015   1.417       .  A
C1014      C1019   1.512       .  S
C1015      C1016   1.406       .  A
C1015      F1020   1.356       .  S
C1016      C1017   1.407       .  A
C1016      H1021   1.082       .  S
C1017      C1018   1.402       .  A
C1018      F1022   1.350       .  S
C1019      C1024   1.416       .  A
C1019      C1028   1.412       .  A
C1024      C1025   1.400       .  A
C1024      F1029   1.357       .  S
C1025      C1026   1.405       .  A
C1025      H1030   1.081       .  S
C1026      C1027   1.409       .  A
C1027      C1028   1.401       .  A
C1027      F1031   1.355       .  S
C1028      H1032   1.079       .  S
C1033      C1034   1.405       .  A
C1033      C1038   1.402       .  A
C1033      H1043   1.083       .  S
C1034      C1035   1.408       .  A
C1034      C1039   1.486       .  S
C1035      C1036   1.399       .  A
C1035      F1040   1.357       .  S
C1036      C1037   1.404       .  A
C1036      H1041   1.083       .  S
C1037      C1038   1.409       .  A
C1038      F1042   1.357       .  S
C1039      C1044   1.408       .  A
C1039      C1048   1.404       .  A
C1044      C1045   1.402       .  A
C1044      F1049   1.357       .  S
C1045      C1046   1.403       .  A
C1045      H1050   1.081       .  S
C1046      C1047   1.406       .  A
C1047      C1048   1.399       .  A
C1047      F1051   1.358       .  S
C1048      H1052   1.083       .  S
C1053      C1054   1.405       .  A
C1053      C1058   1.401       .  A
C1053      H1063   1.083       .  S
C1054      C1055   1.408   1_455  A
C1054      C1059   1.491   1_565  S
C1055      C1056   1.401       .  A
C1055      F1060   1.358       .  S
C1056      C1057   1.407   1_655  A
C1056      H1061   1.082       .  S
C1057      C1058   1.410       .  A
C1058      F1062   1.356       .  S
C1059      C1064   1.408       .  A
C1059      C1068   1.404   1_455  A
C1064      C1065   1.402       .  A
C1064      F1069   1.357       .  S
C1065      C1066   1.406       .  A
C1065      H1070   1.082       .  S
C1066      C1067   1.411   1_455  A
C1067      C1068   1.401       .  A
C1067      F1071   1.356       .  S
C1068      H1072   1.083       .  S
C1073      C1074   1.407       .  A
C1073      C1078   1.402       .  A
C1073      H1083   1.083       .  S
C1074      C1075   1.408       .  A
C1074      C1079   1.489       .  S
C1075      C1076   1.400       .  A
C1075      F1080   1.357       .  S
C1076      C1077   1.402       .  A
C1076      H1081   1.083       .  S
C1077      C1078   1.405       .  A
C1078      F1082   1.357       .  S
C1079      C1084   1.410       .  A
C1079      C1088   1.406       .  A
C1084      C1085   1.402       .  A
C1084      F1089   1.357       .  S
C1085      C1086   1.401       .  A
C1085      H1090   1.083       .  S
C1086      C1087   1.403       .  A
C1087      C1088   1.400       .  A
C1087      F1091   1.357       .  S
C1088      H1092   1.083       .  S
C1093      C1094   1.404       .  A
C1093      C1098   1.404       .  A
C1093      H1103   1.083       .  S
C1094      C1095   1.405       .  A
C1094      C1099   1.484       .  S
C1095      C1096   1.399       .  A
C1095      F1100   1.358       .  S
C1096      C1097   1.406       .  A
C1096      H1101   1.083       .  S
C1097      C1098   1.409       .  A
C1098      F1102   1.357       .  S
C1099      C1104   1.408       .  A
C1099      C1108   1.403       .  A
C1104      C1105   1.404       .  A
C1104      F1109   1.357       .  S
C1105      C1106   1.403       .  A
C1105      H1110   1.083       .  S
C1106      C1107   1.407       .  A
C1107      C1108   1.399       .  A
C1107      F1111   1.358       .  S
C1108      H1112   1.083       .  S
C1113      C1114   1.403       .  A
C1113      C1118   1.393       .  A
C1113      H1123   1.083       .  S
C1114      C1115   1.410       .  A
C1114      C1119   1.488       .  S
C1115      C1116   1.401       .  A
C1115      F1120   1.357       .  S
C1116      C1117   1.405       .  A
C1116      H1121   1.081       .  S
C1117      C1118   1.408       .  A
C1118      F1122   1.358       .  S
C1119      C1124   1.409       .  A
C1119      C1128   1.402       .  A
C1124      C1125   1.400       .  A
C1124      F1129   1.357       .  S
C1125      C1126   1.406       .  A
C1125      H1130   1.077       .  S
C1126      C1127   1.413       .  A
C1127      C1128   1.394       .  A
C1127      F1131   1.358       .  S
C1128      H1132   1.083       .  S
C1133      C1134   1.408       .  A
C1133      C1138   1.404       .  A
C1133      H1143   1.083       .  S
C1134      C1135   1.405       .  A
C1134      C1139   1.485       .  S
C1135      C1136   1.399       .  A
C1135      F1140   1.357       .  S
C1136      C1137   1.404       .  A
C1136      H1141   1.083       .  S
C1137      C1138   1.403       .  A
C1138      F1142   1.356       .  S
C1139      C1144   1.404       .  A
C1139      C1148   1.406       .  A
C1144      C1145   1.400       .  A
C1144      F1149   1.357       .  S
C1145      C1146   1.405       .  A
C1145      H1150   1.082       .  S
C1146      C1147   1.406       .  A
C1147      C1148   1.402       .  A
C1147      F1151   1.357       .  S
C1148      H1152   1.083       .  S
C1153      C1154   1.406       .  A
C1153      C1158   1.397       .  A
C1153      H1163   1.083       .  S
C1154      C1155   1.409       .  A
C1154      C1159   1.487       .  S
C1155      C1156   1.399       .  A
C1155      F1160   1.357       .  S
C1156      C1157   1.402       .  A
C1156      H1161   1.083       .  S
C1157      C1158   1.404       .  A
C1158      F1162   1.358       .  S
C1159      C1164   1.410       .  A
C1159      C1168   1.404       .  A
C1164      C1165   1.400       .  A
C1164      F1169   1.357       .  S
C1165      C1166   1.402       .  A
C1165      H1170   1.082       .  S
C1166      C1167   1.407       .  A
C1167      C1168   1.396       .  A
C1167      F1171   1.358       .  S
C1168      H1172   1.083       .  S
C1173      C1174   1.404       .  A
C1173      C1178   1.397       .  A
C1173      H1183   1.083       .  S
C1174      C1175   1.404       .  A
C1174      C1179   1.479       .  S
C1175      C1176   1.401       .  A
C1175      F1180   1.357       .  S
C1176      C1177   1.406       .  A
C1176      H1181   1.083       .  S
C1177      C1178   1.404       .  A
C1178      F1182   1.357       .  S
C1179      C1184   1.406       .  A
C1179      C1188   1.405       .  A
C1184      C1185   1.396       .  A
C1184      F1189   1.358       .  S
C1185      C1186   1.400       .  A
C1185      H1190   1.083       .  S
C1186      C1187   1.404       .  A
C1187      C1188   1.402       .  A
C1187      F1191   1.357       .  S
C1188      H1192   1.083       .  S
C1193      C1194   1.404       .  A
C1193      C1198   1.398       .  A
C1193      H1203   1.084       .  S
C1194      C1195   1.407       .  A
C1194      C1199   1.484       .  S
C1195      C1196   1.404       .  A
C1195      F1200   1.357       .  S
C1196      C1197   1.405       .  A
C1196      H1201   1.083       .  S
C1197      C1198   1.406       .  A
C1198      F1202   1.357       .  S
C1199      C1204   1.405       .  A
C1199      C1208   1.405       .  A
C1204      C1205   1.400       .  A
C1204      F1209   1.357       .  S
C1205      C1206   1.406       .  A
C1205      H1210   1.083       .  S
C1206      C1207   1.406       .  A
C1207      C1208   1.402       .  A
C1207      F1211   1.356       .  S
C1208      H1212   1.083       .  S
C1213      C1214   1.405       .  A
C1213      C1218   1.403       .  A
C1213      H1223   1.083       .  S
C1214      C1215   1.407       .  A
C1214      C1219   1.491       .  S
C1215      C1216   1.402       .  A
C1215      F1220   1.357       .  S
C1216      C1217   1.407       .  A
C1216      H1221   1.083       .  S
C1217      C1218   1.411       .  A
C1218      F1222   1.356       .  S
C1219      C1224   1.406       .  A
C1219      C1228   1.408       .  A
C1224      C1225   1.399       .  A
C1224      F1229   1.358       .  S
C1225      C1226   1.405       .  A
C1225      H1230   1.084       .  S
C1226      C1227   1.406       .  A
C1227      C1228   1.406       .  A
C1227      F1231   1.357       .  S
C1228      H1232   1.083       .  S
C1233      C1234   1.406       .  A
C1233      C1238   1.403       .  A
C1233      H1243   1.083       .  S
C1234      C1235   1.409       .  A
C1234      C1239   1.490       .  S
C1235      C1236   1.399       .  A
C1235      F1240   1.357       .  S
C1236      C1237   1.405       .  A
C1236      H1241   1.083       .  S
C1237      C1238   1.409       .  A
C1238      F1242   1.357       .  S
C1239      C1244   1.410       .  A
C1239      C1248   1.405       .  A
C1244      C1245   1.403       .  A
C1244      F1249   1.357       .  S
C1245      C1246   1.402       .  A
C1245      H1250   1.083       .  S
C1246      C1247   1.404       .  A
C1247      C1248   1.398       .  A
C1247      F1251   1.358       .  S
C1248      H1252   1.083       .  S
C1253      C1254   1.404       .  A
C1253      C1258   1.400       .  A
C1253      H1263   1.083       .  S
C1254      C1255   1.409       .  A
C1254      C1259   1.493       .  S
C1255      C1256   1.404       .  A
C1255      F1260   1.358       .  S
C1256      C1257   1.409       .  A
C1256      H1261   1.082       .  S
C1257      C1258   1.410       .  A
C1258      F1262   1.356       .  S
C1259      C1264   1.408       .  A
C1259      C1268   1.404       .  A
C1264      C1265   1.402       .  A
C1264      F1269   1.357       .  S
C1265      C1266   1.407       .  A
C1265      H1270   1.082       .  S
C1266      C1267   1.412       .  A
C1267      C1268   1.402       .  A
C1267      F1271   1.356       .  S
C1268      H1272   1.083       .  S
C1273      C1274   1.406       .  A
C1273      C1278   1.399       .  A
C1273      H1283   1.083       .  S
C1274      C1275   1.410       .  A
C1274      C1279   1.493       .  S
C1275      C1276   1.404       .  A
C1275      F1280   1.357       .  S
C1276      C1277   1.403       .  A
C1276      H1281   1.083       .  S
C1277      C1278   1.404       .  A
C1278      F1282   1.357       .  S
C1279      C1284   1.409       .  A
C1279      C1288   1.406       .  A
C1284      C1285   1.398       .  A
C1284      F1289   1.358       .  S
C1285      C1286   1.405       .  A
C1285      H1290   1.083       .  S
C1286      C1287   1.410       .  A
C1287      C1288   1.405       .  A
C1287      F1291   1.356       .  S
C1288      H1292   1.083       .  S
C1293      C1294   1.407       .  A
C1293      C1298   1.402       .  A
C1293      H1303   1.083       .  S
C1294      C1295   1.409       .  A
C1294      C1299   1.490       .  S
C1295      C1296   1.399       .  A
C1295      F1300   1.358       .  S
C1296      C1297   1.402       .  A
C1296      H1301   1.083       .  S
C1297      C1298   1.404       .  A
C1298      F1302   1.356       .  S
C1299      C1304   1.410       .  A
C1299      C1308   1.406       .  A
C1304      C1305   1.405       .  A
C1304      F1309   1.357       .  S
C1305      C1306   1.403       .  A
C1305      H1310   1.082       .  S
C1306      C1307   1.403       .  A
C1307      C1308   1.398       .  A
C1307      F1311   1.357       .  S
C1308      H1312   1.083       .  S
C1313      C1314   1.403       .  A
C1313      C1318   1.396       .  A
C1313      H1323   1.084       .  S
C1314      C1315   1.409       .  A
C1314      C1319   1.488       .  S
C1315      C1316   1.407       .  A
C1315      F1320   1.357       .  S
C1316      C1317   1.406       .  A
C1316      H1321   1.083       .  S
C1317      C1318   1.406       .  A
C1318      F1322   1.358       .  S
C1319      C1324   1.404       .  A
C1319      C1328   1.403       .  A
C1324      C1325   1.396       .  A
C1324      F1329   1.358       .  S
C1325      C1326   1.409       .  A
C1325      H1330   1.080       .  S
C1326      C1327   1.417       .  A
C1327      C1328   1.408       .  A
C1327      F1331   1.355       .  S
C1328      H1332   1.083       .  S
C1333      C1334   1.400       .  A
C1333      C1338   1.397       .  A
C1333      H1343   1.083       .  S
C1334      C1335   1.406       .  A
C1334      C1339   1.477       .  S
C1335      C1336   1.399       .  A
C1335      F1340   1.358       .  S
C1336      C1337   1.404       .  A
C1336      H1341   1.082       .  S
C1337      C1338   1.410       .  A
C1338      F1342   1.357       .  S
C1339      C1344   1.404       .  A
C1339      C1348   1.404       .  A
C1344      C1345   1.395       .  A
C1344      F1349   1.358       .  S
C1345      C1346   1.403       .  A
C1345      H1350   1.084       .  S
C1346      C1347   1.406       .  A
C1347      C1348   1.401       .  A
C1347      F1351   1.357       .  S
C1348      H1352   1.083       .  S
C1353      C1354   1.403       .  A
C1353      C1358   1.399       .  A
C1353      H1363   1.083       .  S
C1354      C1355   1.406       .  A
C1354      C1359   1.482       .  S
C1355      C1356   1.401       .  A
C1355      F1360   1.357       .  S
C1356      C1357   1.406       .  A
C1356      H1361   1.082       .  S
C1357      C1358   1.409       .  A
C1358      F1362   1.356       .  S
C1359      C1364   1.407       .  A
C1359      C1368   1.404       .  A
C1364      C1365   1.403       .  A
C1364      F1369   1.357       .  S
C1365      C1366   1.404       .  A
C1365      H1370   1.083       .  S
C1366      C1367   1.403       .  A
C1367      C1368   1.397       .  A
C1367      F1371   1.357       .  S
C1368      H1372   1.084       .  S
C1373      C1374   1.403       .  A
C1373      C1378   1.395       .  A
C1373      H1383   1.083       .  S
C1374      C1375   1.409       .  A
C1374      C1379   1.484       .  S
C1375      C1376   1.405       .  A
C1375      F1380   1.357       .  S
C1376      C1377   1.405       .  A
C1376      H1381   1.083       .  S
C1377      C1378   1.405       .  A
C1378      F1382   1.358       .  S
C1379      C1384   1.405       .  A
C1379      C1388   1.406       .  A
C1384      C1385   1.400       .  A
C1384      F1389   1.358       .  S
C1385      C1386   1.406       .  A
C1385      H1390   1.083       .  S
C1386      C1387   1.405       .  A
C1387      C1388   1.399       .  A
C1387      F1391   1.356       .  S
C1388      H1392   1.083       .  S
C1393      C1394   1.408       .  A
C1393      C1398   1.400       .  A
C1393      H1403   1.083       .  S
C1394      C1395   1.408       .  A
C1394      C1399   1.490       .  S
C1395      C1396   1.401       .  A
C1395      F1400   1.357       .  S
C1396      C1397   1.404       .  A
C1396      H1401   1.083       .  S
C1397      C1398   1.403       .  A
C1398      F1402   1.357       .  S
C1399      C1404   1.411       .  A
C1399      C1408   1.405       .  A
C1404      C1405   1.405       .  A
C1404      F1409   1.357       .  S
C1405      C1406   1.403       .  A
C1405      H1410   1.083       .  S
C1406      C1407   1.403       .  A
C1407      C1408   1.395       .  A
C1407      F1411   1.358       .  S
C1408      H1412   1.083       .  S
C1413      C1414   1.410       .  A
C1413      C1418   1.401       .  A
C1413      H1423   1.081       .  S
C1414      C1415   1.414       .  A
C1414      C1419   1.506       .  S
C1415      C1416   1.398       .  A
C1415      F1420   1.357       .  S
C1416      C1417   1.405       .  A
C1416      H1421   1.080       .  S
C1417      C1418   1.408       .  A
C1418      F1422   1.355       .  S
C1419      C1424   1.414       .  A
C1419      C1428   1.410       .  A
C1424      C1425   1.397       .  A
C1424      F1429   1.356       .  S
C1425      C1426   1.404       .  A
C1425      H1430   1.081       .  S
C1426      C1427   1.409       .  A
C1427      C1428   1.401       .  A
C1427      F1431   1.355       .  S
C1428      H1432   1.081       .  S
C1433      C1434   1.403       .  A
C1433      C1438   1.400       .  A
C1433      H1443   1.084       .  S
C1434      C1435   1.404       .  A
C1434      C1439   1.481       .  S
C1435      C1436   1.404       .  A
C1435      F1440   1.357       .  S
C1436      C1437   1.408       .  A
C1436      H1441   1.083       .  S
C1437      C1438   1.408       .  A
C1438      F1442   1.357       .  S
C1439      C1444   1.406       .  A
C1439      C1448   1.402       .  A
C1444      C1445   1.404       .  A
C1444      F1449   1.357       .  S
C1445      C1446   1.403       .  A
C1445      H1450   1.083       .  S
C1446      C1447   1.407       .  A
C1447      C1448   1.399       .  A
C1447      F1451   1.358       .  S
C1448      H1452   1.083       .  S
C1453      C1454   1.409       .  A
C1453      C1458   1.405       .  A
C1453      H1463   1.083       .  S
C1454      C1455   1.408       .  A
C1454      C1459   1.493       .  S
C1455      C1456   1.397       .  A
C1455      F1460   1.357       .  S
C1456      C1457   1.403       .  A
C1456      H1461   1.084       .  S
C1457      C1458   1.405       .  A
C1458      F1462   1.357       .  S
C1459      C1464   1.408       .  A
C1459      C1468   1.406       .  A
C1464      C1465   1.400       .  A
C1464      F1469   1.357       .  S
C1465      C1466   1.406       .  A
C1465      H1470   1.083       .  S
C1466      C1467   1.411       .  A
C1467      C1468   1.403       .  A
C1467      F1471   1.356       .  S
C1468      H1472   1.083       .  S
C1473      C1474   1.404       .  A
C1473      C1478   1.403       .  A
C1473      H1483   1.083       .  S
C1474      C1475   1.405       .  A
C1474      C1479   1.491       .  S
C1475      C1476   1.402       .  A
C1475      F1480   1.357       .  S
C1476      C1477   1.410       .  A
C1476      H1481   1.081       .  S
C1477      C1478   1.414       .  A
C1478      F1482   1.356       .  S
C1479      C1484   1.405       .  A
C1479      C1488   1.404       .  A
C1484      C1485   1.402       .  A
C1484      F1489   1.357       .  S
C1485      C1486   1.410       .  A
C1485      H1490   1.081       .  S
C1486      C1487   1.413       .  A
C1487      C1488   1.404       .  A
C1487      F1491   1.356       .  S
C1488      H1492   1.083       .  S
C1493      C1494   1.405       .  A
C1493      C1498   1.400       .  A
C1493      H1503   1.083       .  S
C1494      C1495   1.408       .  A
C1494      C1499   1.489       .  S
C1495      C1496   1.404       .  A
C1495      F1500   1.357       .  S
C1496      C1497   1.406       .  A
C1496      H1501   1.083       .  S
C1497      C1498   1.408       .  A
C1498      F1502   1.357       .  S
C1499      C1504   1.409       .  A
C1499      C1508   1.405       .  A
C1504      C1505   1.403       .  A
C1504      F1509   1.357       .  S
C1505      C1506   1.402       .  A
C1505      H1510   1.083       .  S
C1506      C1507   1.404       .  A
C1507      C1508   1.399       .  A
C1507      F1511   1.358       .  S
C1508      H1512   1.083       .  S
C1513      C1514   1.406       .  A
C1513      C1518   1.398       .  A
C1513      H1523   1.083       .  S
C1514      C1515   1.407       .  A
C1514      C1519   1.485       .  S
C1515      C1516   1.402       .  A
C1515      F1520   1.357       .  S
C1516      C1517   1.402       .  A
C1516      H1521   1.083       .  S
C1517      C1518   1.403       .  A
C1518      F1522   1.357       .  S
C1519      C1524   1.409       .  A
C1519      C1528   1.404       .  A
C1524      C1525   1.404       .  A
C1524      F1529   1.357       .  S
C1525      C1526   1.403       .  A
C1525      H1530   1.083       .  S
C1526      C1527   1.403       .  A
C1527      C1528   1.396       .  A
C1527      F1531   1.357       .  S
C1528      H1532   1.084       .  S
C1533      C1534   1.404       .  A
C1533      C1538   1.397       .  A
C1533      H1543   1.083       .  S
C1534      C1535   1.408       .  A
C1534      C1539   1.484       .  S
C1535      C1536   1.401       .  A
C1535      F1540   1.357       .  S
C1536      C1537   1.404       .  A
C1536      H1541   1.083       .  S
C1537      C1538   1.405       .  A
C1538      F1542   1.358       .  S
C1539      C1544   1.407       .  A
C1539      C1548   1.404       .  A
C1544      C1545   1.399       .  A
C1544      F1549   1.357       .  S
C1545      C1546   1.403       .  A
C1545      H1550   1.082       .  S
C1546      C1547   1.406       .  A
C1547      C1548   1.400       .  A
C1547      F1551   1.357       .  S
C1548      H1552   1.083       .  S
C1553      C1554   1.404       .  A
C1553      C1558   1.403       .  A
C1553      H1563   1.083       .  S
C1554      C1555   1.405       .  A
C1554      C1559   1.479       .  S
C1555      C1556   1.397       .  A
C1555      F1560   1.358       .  S
C1556      C1557   1.403       .  A
C1556      H1561   1.083       .  S
C1557      C1558   1.406       .  A
C1558      F1562   1.356       .  S
C1559      C1564   1.407       .  A
C1559      C1568   1.402       .  A
C1564      C1565   1.401       .  A
C1564      F1569   1.358       .  S
C1565      C1566   1.404       .  A
C1565      H1570   1.083       .  S
C1566      C1567   1.407       .  A
C1567      C1568   1.398       .  A
C1567      F1571   1.356       .  S
C1568      H1572   1.083       .  S
C1573      C1574   1.406       .  A
C1573      C1578   1.398       .  A
C1573      H1583   1.083       .  S
C1574      C1575   1.406       .  A
C1574      C1579   1.484       .  S
C1575      C1576   1.400       .  A
C1575      F1580   1.358       .  S
C1576      C1577   1.406       .  A
C1576      H1581   1.083       .  S
C1577      C1578   1.404       .  A
C1578      F1582   1.356       .  S
C1579      C1584   1.405       .  A
C1579      C1588   1.406       .  A
C1584      C1585   1.397       .  A
C1584      F1589   1.357       .  S
C1585      C1586   1.405       .  A
C1585      H1590   1.083       .  S
C1586      C1587   1.407       .  A
C1587      C1588   1.400       .  A
C1587      F1591   1.355       .  S
C1588      H1592   1.083       .  S
C1593      C1594   1.404       .  A
C1593      C1598   1.399       .  A
C1593      H1603   1.083       .  S
C1594      C1595   1.407       .  A
C1594      C1599   1.482       .  S
C1595      C1596   1.397       .  A
C1595      F1600   1.357       .  S
C1596      C1597   1.404       .  A
C1596      H1601   1.082       .  S
C1597      C1598   1.408       .  A
C1598      F1602   1.357       .  S
C1599      C1604   1.407       .  A
C1599      C1608   1.405       .  A
C1604      C1605   1.399       .  A
C1604      F1609   1.358       .  S
C1605      C1606   1.402       .  A
C1605      H1610   1.083       .  S
C1606      C1607   1.403       .  A
C1607      C1608   1.398       .  A
C1607      F1611   1.357       .  S
C1608      H1612   1.083       .  S
C1613      C1614   1.403       .  A
C1613      C1618   1.395       .  A
C1613      H1623   1.084       .  S
C1614      C1615   1.408       .  A
C1614      C1619   1.485       .  S
C1615      C1616   1.405       .  A
C1615      F1620   1.357       .  S
C1616      C1617   1.405       .  A
C1616      H1621   1.083       .  S
C1617      C1618   1.405       .  A
C1618      F1622   1.357       .  S
C1619      C1624   1.408       .  A
C1619      C1628   1.405       .  A
C1624      C1625   1.405       .  A
C1624      F1629   1.357       .  S
C1625      C1626   1.404       .  A
C1625      H1630   1.082       .  S
C1626      C1627   1.403       .  A
C1627      C1628   1.396       .  A
C1627      F1631   1.357       .  S
C1628      H1632   1.084       .  S
C1633      C1634   1.405       .  A
C1633      C1638   1.403       .  A
C1633      H1643   1.083       .  S
C1634      C1635   1.406       .  A
C1634      C1639   1.481       .  S
C1635      C1636   1.395       .  A
C1635      F1640   1.358       .  S
C1636      C1637   1.402       .  A
C1636      H1641   1.083       .  S
C1637      C1638   1.406       .  A
C1638      F1642   1.356       .  S
C1639      C1644   1.407       .  A
C1639      C1648   1.404       .  A
C1644      C1645   1.401       .  A
C1644      F1649   1.357       .  S
C1645      C1646   1.403       .  A
C1645      H1650   1.083       .  S
C1646      C1647   1.403       .  A
C1647      C1648   1.396       .  A
C1647      F1651   1.357       .  S
C1648      H1652   1.083       .  S
C1653      C1654   1.406       .  A
C1653      C1658   1.399       .  A
C1653      H1663   1.083       .  S
C1654      C1655   1.412       .  A
C1654      C1659   1.491       .  S
C1655      C1656   1.399       .  A
C1655      F1660   1.357       .  S
C1656      C1657   1.400       .  A
C1656      H1661   1.082       .  S
C1657      C1658   1.405       .  A
C1658      F1662   1.358       .  S
C1659      C1664   1.412       .  A
C1659      C1668   1.406       .  A
C1664      C1665   1.400       .  A
C1664      F1669   1.357       .  S
C1665      C1666   1.402       .  A
C1665      H1670   1.083       .  S
C1666      C1667   1.404       .  A
C1667      C1668   1.398       .  A
C1667      F1671   1.357       .  S
C1668      H1672   1.083       .  S
C1673      C1674   1.407       .  A
C1673      C1678   1.403       .  A
C1673      H1683   1.083       .  S
C1674      C1675   1.408       .  A
C1674      C1679   1.492       .  S
C1675      C1676   1.402       .  A
C1675      F1680   1.358       .  S
C1676      C1677   1.404       .  A
C1676      H1681   1.084       .  S
C1677      C1678   1.404       .  A
C1678      F1682   1.357       .  S
C1679      C1684   1.409       .  A
C1679      C1688   1.406       .  A
C1684      C1685   1.400       .  A
C1684      F1689   1.358       .  S
C1685      C1686   1.404       .  A
C1685      H1690   1.083       .  S
C1686      C1687   1.409       .  A
C1687      C1688   1.405       .  A
C1687      F1691   1.357       .  S
C1688      H1692   1.083       .  S
C1693      C1694   1.404       .  A
C1693      C1698   1.400       .  A
C1693      H1703   1.083       .  S
C1694      C1695   1.405       .  A
C1694      C1699   1.480       .  S
C1695      C1696   1.401       .  A
C1695      F1700   1.357       .  S
C1696      C1697   1.403       .  A
C1696      H1701   1.082       .  S
C1697      C1698   1.404       .  A
C1698      F1702   1.357       .  S
C1699      C1704   1.406       .  A
C1699      C1708   1.404       .  A
C1704      C1705   1.399       .  A
C1704      F1709   1.358       .  S
C1705      C1706   1.402       .  A
C1705      H1710   1.083       .  S
C1706      C1707   1.404       .  A
C1707      C1708   1.401       .  A
C1707      F1711   1.356       .  S
C1708      H1712   1.083       .  S
C1713      C1714   1.403       .  A
C1713      C1718   1.401       .  A
C1713      H1723   1.083       .  S
C1714      C1715   1.404       .  A
C1714      C1719   1.476       .  S
C1715      C1716   1.398       .  A
C1715      F1720   1.357       .  S
C1716      C1717   1.401       .  A
C1716      H1721   1.083       .  S
C1717      C1718   1.405       .  A
C1718      F1722   1.357       .  S
C1719      C1724   1.405       .  A
C1719      C1728   1.399       .  A
C1724      C1725   1.402       .  A
C1724      F1729   1.357       .  S
C1725      C1726   1.406       .  A
C1725      H1730   1.081       .  S
C1726      C1727   1.410       .  A
C1727      C1728   1.397       .  A
C1727      F1731   1.357       .  S
C1728      H1732   1.083       .  S
C1733      C1734   1.403       .  A
C1733      C1738   1.397       .  A
C1733      H1743   1.083       .  S
C1734      C1735   1.405       .  A
C1734      C1739   1.478       .  S
C1735      C1736   1.396       .  A
C1735      F1740   1.358       .  S
C1736      C1737   1.403       .  A
C1736      H1741   1.081       .  S
C1737      C1738   1.406       .  A
C1738      F1742   1.357       .  S
C1739      C1744   1.405       .  A
C1739      C1748   1.403       .  A
C1744      C1745   1.396       .  A
C1744      F1749   1.358       .  S
C1745      C1746   1.404       .  A
C1745      H1750   1.082       .  S
C1746      C1747   1.409       .  A
C1747      C1748   1.398       .  A
C1747      F1751   1.357       .  S
C1748      H1752   1.083       .  S
C1753      C1754   1.404       .  A
C1753      C1758   1.398       .  A
C1753      H1763   1.083       .  S
C1754      C1755   1.407       .  A
C1754      C1759   1.482       .  S
C1755      C1756   1.402       .  A
C1755      F1760   1.357       .  S
C1756      C1757   1.402       .  A
C1756      H1761   1.082       .  S
C1757      C1758   1.403       .  A
C1758      F1762   1.357       .  S
C1759      C1764   1.407       .  A
C1759      C1768   1.404       .  A
C1764      C1765   1.400       .  A
C1764      F1769   1.358       .  S
C1765      C1766   1.402       .  A
C1765      H1770   1.083       .  S
C1766      C1767   1.405       .  A
C1767      C1768   1.400       .  A
C1767      F1771   1.356       .  S
C1768      H1772   1.083       .  S
C1773      C1774   1.403       .  A
C1773      C1778   1.407       .  A
C1773      H1783   1.083       .  S
C1774      C1775   1.403       .  A
C1774      C1779   1.482       .  S
C1775      C1776   1.395       .  A
C1775      F1780   1.358       .  S
C1776      C1777   1.407       .  A
C1776      H1781   1.081       .  S
C1777      C1778   1.415       .  A
C1778      F1782   1.356       .  S
C1779      C1784   1.406       .  A
C1779      C1788   1.402       .  A
C1784      C1785   1.404       .  A
C1784      F1789   1.357       .  S
C1785      C1786   1.405       .  A
C1785      H1790   1.083       .  S
C1786      C1787   1.407       .  A
C1787      C1788   1.396       .  A
C1787      F1791   1.358       .  S
C1788      H1792   1.084       .  S
C1793      C1794   1.404       .  A
C1793      C1798   1.408       .  A
C1793      H1803   1.083       .  S
C1794      C1795   1.404       .  A
C1794      C1799   1.486       .  S
C1795      C1796   1.393       .  A
C1795      F1800   1.358       .  S
C1796      C1797   1.407       .  A
C1796      H1801   1.081       .  S
C1797      C1798   1.414       .  A
C1798      F1802   1.356       .  S
C1799      C1804   1.406       .  A
C1799      C1808   1.407       .  A
C1804      C1805   1.395       .  A
C1804      F1809   1.358       .  S
C1805      C1806   1.402       .  A
C1805      H1810   1.084       .  S
C1806      C1807   1.406       .  A
C1807      C1808   1.407       .  A
C1807      F1811   1.357       .  S
C1808      H1812   1.083       .  S
C1813      C1814   1.406       .  A
C1813      C1818   1.406       .  A
C1813      H1823   1.083       .  S
C1814      C1815   1.407       .  A
C1814      C1819   1.497       .  S
C1815      C1816   1.399       .  A
C1815      F1820   1.357       .  S
C1816      C1817   1.408       .  A
C1816      H1821   1.081       .  S
C1817      C1818   1.414       .  A
C1818      F1822   1.355       .  S
C1819      C1824   1.410       .  A
C1819      C1828   1.406       .  A
C1824      C1825   1.405       .  A
C1824      F1829   1.357       .  S
C1825      C1826   1.409       .  A
C1825      H1830   1.083       .  S
C1826      C1827   1.409       .  A
C1827      C1828   1.399       .  A
C1827      F1831   1.356       .  S
C1828      H1832   1.083       .  S
C1833      C1834   1.406       .  A
C1833      C1838   1.405       .  A
C1833      H1843   1.083       .  S
C1834      C1835   1.406       .  A
C1834      C1839   1.491       .  S
C1835      C1836   1.398       .  A
C1835      F1840   1.357       .  S
C1836      C1837   1.406       .  A
C1836      H1841   1.082       .  S
C1837      C1838   1.411       .  A
C1838      F1842   1.356       .  S
C1839      C1844   1.407       .  A
C1839      C1848   1.409       .  A
C1844      C1845   1.400       .  A
C1844      F1849   1.357       .  S
C1845      C1846   1.405       .  A
C1845      H1850   1.083       .  S
C1846      C1847   1.404       .  A
C1847      C1848   1.404       .  A
C1847      F1851   1.357       .  S
C1848      H1852   1.083       .  S
C1853      C1854   1.404       .  A
C1853      C1858   1.398       .  A
C1853      H1863   1.083       .  S
C1854      C1855   1.408       .  A
C1854      C1859   1.489       .  S
C1855      C1856   1.404       .  A
C1855      F1860   1.357       .  S
C1856      C1857   1.408       .  A
C1856      H1861   1.082       .  S
C1857      C1858   1.409       .  A
C1858      F1862   1.356       .  S
C1859      C1864   1.408       .  A
C1859      C1868   1.408       .  A
C1864      C1865   1.399       .  A
C1864      F1869   1.357       .  S
C1865      C1866   1.402       .  A
C1865      H1870   1.084       .  S
C1866      C1867   1.404       .  A
C1867      C1868   1.403       .  A
C1867      F1871   1.357       .  S
C1868      H1872   1.083       .  S
C1873      C1874   1.404       .  A
C1873      C1878   1.399       .  A
C1873      H1883   1.083       .  S
C1874      C1875   1.406       .  A
C1874      C1879   1.484       .  S
C1875      C1876   1.402       .  A
C1875      F1880   1.357       .  S
C1876      C1877   1.407       .  A
C1876      H1881   1.083       .  S
C1877      C1878   1.408       .  A
C1878      F1882   1.357       .  S
C1879      C1884   1.408       .  A
C1879      C1888   1.402       .  A
C1884      C1885   1.403       .  A
C1884      F1889   1.357       .  S
C1885      C1886   1.403       .  A
C1885      H1890   1.081       .  S
C1886      C1887   1.407       .  A
C1887      C1888   1.397       .  A
C1887      F1891   1.358       .  S
C1888      H1892   1.083       .  S
C1893      C1894   1.407       .  A
C1893      C1898   1.406       .  A
C1893      H1903   1.083       .  S
C1894      C1895   1.405       .  A
C1894      C1899   1.491       .  S
C1895      C1896   1.400       .  A
C1895      F1900   1.357   1_545  S
C1896      C1897   1.407       .  A
C1896      H1901   1.082       .  S
C1897      C1898   1.411       .  A
C1898      F1902   1.357       .  S
C1899      C1904   1.405       .  A
C1899      C1908   1.405       .  A
C1904      C1905   1.403   1_556  A
C1904      F1909   1.357       .  S
C1905      C1906   1.409       .  A
C1905      H1910   1.082       .  S
C1906      C1907   1.412       .  A
C1907      C1908   1.403   1_554  A
C1907      F1911   1.356   1_545  S
C1908      H1912   1.083   1_545  S
C1913      C1914   1.402       .  A
C1913      C1918   1.401       .  A
C1913      H1923   1.083       .  S
C1914      C1915   1.404       .  A
C1914      C1919   1.474       .  S
C1915      C1916   1.398       .  A
C1915      F1920   1.358       .  S
C1916      C1917   1.402       .  A
C1916      H1921   1.083       .  S
C1917      C1918   1.406       .  A
C1918      F1922   1.357       .  S
C1919      C1924   1.403       .  A
C1919      C1928   1.402       .  A
C1924      C1925   1.397       .  A
C1924      F1929   1.358       .  S
C1925      C1926   1.404       .  A
C1925      H1930   1.083       .  S
C1926      C1927   1.407       .  A
C1927      C1928   1.401       .  A
C1927      F1931   1.356       .  S
C1928      H1932   1.083       .  S
C1933      C1934   1.402       .  A
C1933      C1938   1.397       .  A
C1933      H1943   1.083       .  S
C1934      C1935   1.409       .  A
C1934      C1939   1.485       .  S
C1935      C1936   1.403       .  A
C1935      F1940   1.357       .  S
C1936      C1937   1.403       .  A
C1936      H1941   1.083       .  S
C1937      C1938   1.409       .  A
C1938      F1942   1.358       .  S
C1939      C1944   1.406       .  A
C1939      C1948   1.406       .  A
C1944      C1945   1.398       .  A
C1944      F1949   1.358       .  S
C1945      C1946   1.404       .  A
C1945      H1950   1.083       .  S
C1946      C1947   1.408       .  A
C1947      C1948   1.404       .  A
C1947      F1951   1.357       .  S
C1948      H1952   1.083       .  S
C1953      C1954   1.403       .  A
C1953      C1958   1.400       .  A
C1953      H1963   1.083       .  S
C1954      C1955   1.407       .  A
C1954      C1959   1.482       .  S
C1955      C1956   1.398       .  A
C1955      F1960   1.358       .  S
C1956      C1957   1.404       .  A
C1956      H1961   1.082       .  S
C1957      C1958   1.409       .  A
C1958      F1962   1.357       .  S
C1959      C1964   1.407       .  A
C1959      C1968   1.403       .  A
C1964      C1965   1.403       .  A
C1964      F1969   1.357       .  S
C1965      C1966   1.406       .  A
C1965      H1970   1.083       .  S
C1966      C1967   1.405       .  A
C1967      C1968   1.394       .  A
C1967      F1971   1.358       .  S
C1968      H1972   1.083       .  S
C1973      C1974   1.405       .  A
C1973      C1978   1.402       .  A
C1973      H1983   1.083       .  S
C1974      C1975   1.405       .  A
C1974      C1979   1.482       .  S
C1975      C1976   1.398       .  A
C1975      F1980   1.357       .  S
C1976      C1977   1.405       .  A
C1976      H1981   1.083       .  S
C1977      C1978   1.406       .  A
C1978      F1982   1.356       .  S
C1979      C1984   1.407       .  A
C1979      C1988   1.404       .  A
C1984      C1985   1.404       .  A
C1984      F1989   1.357       .  S
C1985      C1986   1.404       .  A
C1985      H1990   1.082       .  S
C1986      C1987   1.403       .  A
C1987      C1988   1.397       .  A
C1987      F1991   1.357       .  S
C1988      H1992   1.084       .  S
C1993      C1994   1.409       .  A
C1993      C1998   1.403       .  A
C1993      H2003   1.083       .  S
C1994      C1995   1.410       .  A
C1994      C1999   1.496       .  S
C1995      C1996   1.401       .  A
C1995      F2000   1.357       .  S
C1996      C1997   1.404       .  A
C1996      H2001   1.084       .  S
C1997      C1998   1.404       .  A
C1998      F2002   1.357       .  S
C1999      C2004   1.410       .  A
C1999      C2008   1.407       .  A
C2004      C2005   1.404       .  A
C2004      F2009   1.357       .  S
C2005      C2006   1.406       .  A
C2005      H2010   1.083       .  S
C2006      C2007   1.407       .  A
C2007      C2008   1.399       .  A
C2007      F2011   1.357       .  S
C2008      H2012   1.083       .  S
C2013      C2014   1.404       .  A
C2013      C2018   1.401       .  A
C2013      H2023   1.083       .  S
C2014      C2015   1.410       .  A
C2014      C2019   1.489       .  S
C2015      C2016   1.400       .  A
C2015      F2020   1.357       .  S
C2016      C2017   1.401       .  A
C2016      H2021   1.083       .  S
C2017      C2018   1.407       .  A
C2018      F2022   1.358       .  S
C2019      C2024   1.409       .  A
C2019      C2028   1.404       .  A
C2024      C2025   1.405       .  A
C2024      F2029   1.357       .  S
C2025      C2026   1.406       .  A
C2025      H2030   1.083       .  S
C2026      C2027   1.405       .  A
C2027      C2028   1.396       .  A
C2027      F2031   1.358       .  S
C2028      H2032   1.083       .  S
C2033      C2034   1.402       .  A
C2033      C2038   1.396       .  A
C2033      H2043   1.083       .  S
C2034      C2035   1.411       .  A
C2034      C2039   1.488       .  S
C2035      C2036   1.406       .  A
C2035      F2040   1.357       .  S
C2036      C2037   1.405       .  A
C2036      H2041   1.083       .  S
C2037      C2038   1.409       .  A
C2038      F2042   1.357       .  S
C2039      C2044   1.406       .  A
C2039      C2048   1.407       .  A
C2044      C2045   1.401       .  A
C2044      F2049   1.357       .  S
C2045      C2046   1.407       .  A
C2045      H2050   1.083       .  S
C2046      C2047   1.405       .  A
C2047      C2048   1.400       .  A
C2047      F2051   1.356       .  S
C2048      H2052   1.083       .  S
C2053      C2054   1.406       .  A
C2053      C2058   1.398       .  A
C2053      H2063   1.083       .  S
C2054      C2055   1.408       .  A
C2054      C2059   1.491       .  S
C2055      C2056   1.406       .  A
C2055      F2060   1.357       .  S
C2056      C2057   1.406       .  A
C2056      H2061   1.081       .  S
C2057      C2058   1.405       .  A
C2058      F2062   1.357       .  S
C2059      C2064   1.410       .  A
C2059      C2068   1.405       .  A
C2064      C2065   1.407       .  A
C2064      F2069   1.357       .  S
C2065      C2066   1.405       .  A
C2065      H2070   1.082       .  S
C2066      C2067   1.403       .  A
C2067      C2068   1.397       .  A
C2067      F2071   1.357       .  S
C2068      H2072   1.083       .  S
C2073      C2074   1.402       .  A
C2073      C2078   1.398       .  A
C2073      H2083   1.083       .  S
C2074      C2075   1.408       .  A
C2074      C2079   1.488       .  S
C2075      C2076   1.405       .  A
C2075      F2080   1.357       .  S
C2076      C2077   1.408       .  A
C2076      H2081   1.082       .  S
C2077      C2078   1.412       .  A
C2078      F2082   1.356       .  S
C2079      C2084   1.410       .  A
C2079      C2088   1.403       .  A
C2084      C2085   1.404       .  A
C2084      F2089   1.357       .  S
C2085      C2086   1.403       .  A
C2085      H2090   1.083       .  S
C2086      C2087   1.408       .  A
C2087      C2088   1.399       .  A
C2087      F2091   1.358       .  S
C2088      H2092   1.083       .  S
C2093      C2094   1.405       .  A
C2093      C2098   1.401       .  A
C2093      H2103   1.083       .  S
C2094      C2095   1.410       .  A
C2094      C2099   1.492       .  S
C2095      C2096   1.405       .  A
C2095      F2100   1.357       .  S
C2096      C2097   1.403       .  A
C2096      H2101   1.083       .  S
C2097      C2098   1.406       .  A
C2098      F2102   1.357       .  S
C2099      C2104   1.408       .  A
C2099      C2108   1.407       .  A
C2104      C2105   1.400       .  A
C2104      F2109   1.357       .  S
C2105      C2106   1.405       .  A
C2105      H2110   1.083       .  S
C2106      C2107   1.410       .  A
C2107      C2108   1.406       .  A
C2107      F2111   1.357       .  S
C2108      H2112   1.083       .  S
C2113      C2114   1.402       .  A
C2113      C2118   1.401       .  A
C2113      H2123   1.083       .  S
C2114      C2115   1.405       .  A
C2114      C2119   1.485       .  S
C2115      C2116   1.402       .  A
C2115      F2120   1.357       .  S
C2116      C2117   1.409       .  A
C2116      H2121   1.082       .  S
C2117      C2118   1.412       .  A
C2118      F2122   1.356       .  S
C2119      C2124   1.406       .  A
C2119      C2128   1.402       .  A
C2124      C2125   1.403       .  A
C2124      F2129   1.357       .  S
C2125      C2126   1.407       .  A
C2125      H2130   1.083       .  S
C2126      C2127   1.411       .  A
C2127      C2128   1.400       .  A
C2127      F2131   1.357       .  S
C2128      H2132   1.083       .  S
C2133      C2134   1.407       .  A
C2133      C2138   1.402       .  A
C2133      H2143   1.083       .  S
C2134      C2135   1.405       .  A
C2134      C2139   1.485       .  S
C2135      C2136   1.396       .  A
C2135      F2140   1.358       .  S
C2136      C2137   1.405       .  A
C2136      H2141   1.084       .  S
C2137      C2138   1.406       .  A
C2138      F2142   1.356       .  S
C2139      C2144   1.406       .  A
C2139      C2148   1.406       .  A
C2144      C2145   1.397       .  A
C2144      F2149   1.357       .  S
C2145      C2146   1.404       .  A
C2145      H2150   1.083       .  S
C2146      C2147   1.408       .  A
C2147      C2148   1.402       .  A
C2147      F2151   1.357       .  S
C2148      H2152   1.083       .  S
C2153      C2154   1.405       .  A
C2153      C2158   1.402       .  A
C2153      H2163   1.083       .  S
C2154      C2155   1.405       .  A
C2154      C2159   1.484       .  S
C2155      C2156   1.400       .  A
C2155      F2160   1.357       .  S
C2156      C2157   1.405       .  A
C2156      H2161   1.083       .  S
C2157      C2158   1.406       .  A
C2158      F2162   1.357       .  S
C2159      C2164   1.406       .  A
C2159      C2168   1.405       .  A
C2164      C2165   1.399       .  A
C2164      F2169   1.358       .  S
C2165      C2166   1.403       .  A
C2165      H2170   1.083       .  S
C2166      C2167   1.405       .  A
C2167      C2168   1.404       .  A
C2167      F2171   1.357       .  S
C2168      H2172   1.083       .  S
C2173      C2174   1.409       .  A
C2173      C2178   1.405       .  A
C2173      H2183   1.083       .  S
C2174      C2175   1.406       .  A
C2174      C2179   1.489       .  S
C2175      C2176   1.396       .  A
C2175      F2180   1.358       .  S
C2176      C2177   1.404       .  A
C2176      H2181   1.084       .  S
C2177      C2178   1.405       .  A
C2178      F2182   1.357       .  S
C2179      C2184   1.407       .  A
C2179      C2188   1.406       .  A
C2184      C2185   1.400       .  A
C2184      F2189   1.358       .  S
C2185      C2186   1.407       .  A
C2185      H2190   1.083       .  S
C2186      C2187   1.410       .  A
C2187      C2188   1.402       .  A
C2187      F2191   1.356       .  S
C2188      H2192   1.083       .  S
C2193      C2194   1.403       .  A
C2193      C2198   1.400       .  A
C2193      H2203   1.083       .  S
C2194      C2195   1.408       .  A
C2194      C2199   1.483       .  S
C2195      C2196   1.397       .  A
C2195      F2200   1.358       .  S
C2196      C2197   1.402       .  A
C2196      H2201   1.081       .  S
C2197      C2198   1.407       .  A
C2198      F2202   1.357       .  S
C2199      C2204   1.409       .  A
C2199      C2208   1.402       .  A
C2204      C2205   1.406       .  A
C2204      F2209   1.357       .  S
C2205      C2206   1.405       .  A
C2205      H2210   1.083       .  S
C2206      C2207   1.405       .  A
C2207      C2208   1.391       .  A
C2207      F2211   1.358       .  S
C2208      H2212   1.083       .  S
C2213      C2214   1.411       .  A
C2213      C2218   1.398       .  A
C2213      H2223   1.080       .  S
C2214      C2215   1.416       .  A
C2214      C2219   1.509       .  S
C2215      C2216   1.402       .  A
C2215      F2220   1.356       .  S
C2216      C2217   1.404       .  A
C2216      H2221   1.082       .  S
C2217      C2218   1.406       .  A
C2218      F2222   1.356       .  S
C2219      C2224   1.414       .  A
C2219      C2228   1.411       .  A
C2224      C2225   1.401       .  A
C2224      F2229   1.357       .  S
C2225      C2226   1.406       .  A
C2225      H2230   1.081       .  S
C2226      C2227   1.409       .  A
C2227      C2228   1.400       .  A
C2227      F2231   1.355       .  S
C2228      H2232   1.080       .  S
C2233      C2234   1.404       .  A
C2233      C2238   1.394       .  A
C2233      H2243   1.083       .  S
C2234      C2235   1.406       .  A
C2234      C2239   1.481       .  S
C2235      C2236   1.399       .  A
C2235      F2240   1.357       .  S
C2236      C2237   1.405       .  A
C2236      H2241   1.083       .  S
C2237      C2238   1.404       .  A
C2238      F2242   1.356       .  S
C2239      C2244   1.409       .  A
C2239      C2248   1.404       .  A
C2244      C2245   1.403       .  A
C2244      F2249   1.357       .  S
C2245      C2246   1.404       .  A
C2245      H2250   1.083       .  S
C2246      C2247   1.403       .  A
C2247      C2248   1.391       .  A
C2247      F2251   1.358       .  S
C2248      H2252   1.083       .  S
C2253      C2254   1.403       .  A
C2253      C2258   1.399       .  A
C2253      H2263   1.083       .  S
C2254      C2255   1.407       .  A
C2254      C2259   1.479       .  S
C2255      C2256   1.395       .  A
C2255      F2260   1.358       .  S
C2256      C2257   1.403       .  A
C2256      H2261   1.082       .  S
C2257      C2258   1.406       .  A
C2258      F2262   1.357       .  S
C2259      C2264   1.405       .  A
C2259      C2268   1.405       .  A
C2264      C2265   1.392       .  A
C2264      F2269   1.358       .  S
C2265      C2266   1.402       .  A
C2265      H2270   1.084       .  S
C2266      C2267   1.408       .  A
C2267      C2268   1.402       .  A
C2267      F2271   1.356       .  S
C2268      H2272   1.083       .  S
C2273      C2274   1.407       .  A
C2273      C2278   1.403       .  A
C2273      H2283   1.083       .  S
C2274      C2275   1.408       .  A
C2274      C2279   1.487       .  S
C2275      C2276   1.395       .  A
C2275      F2280   1.358       .  S
C2276      C2277   1.402       .  A
C2276      H2281   1.083       .  S
C2277      C2278   1.405       .  A
C2278      F2282   1.355       .  S
C2279      C2284   1.408       .  A
C2279      C2288   1.407       .  A
C2284      C2285   1.401       .  A
C2284      F2289   1.357       .  S
C2285      C2286   1.403       .  A
C2285      H2290   1.083       .  S
C2286      C2287   1.404       .  A
C2287      C2288   1.397       .  A
C2287      F2291   1.357       .  S
C2288      H2292   1.083       .  S
C2293      C2294   1.404       .  A
C2293      C2298   1.401       .  A
C2293      H2303   1.083       .  S
C2294      C2295   1.406       .  A
C2294      C2299   1.482       .  S
C2295      C2296   1.397       .  A
C2295      F2300   1.358       .  S
C2296      C2297   1.405       .  A
C2296      H2301   1.083       .  S
C2297      C2298   1.409       .  A
C2298      F2302   1.356       .  S
C2299      C2304   1.406       .  A
C2299      C2308   1.407       .  A
C2304      C2305   1.396       .  A
C2304      F2309   1.358       .  S
C2305      C2306   1.403       .  A
C2305      H2310   1.084       .  S
C2306      C2307   1.403       .  A
C2307      C2308   1.401       .  A
C2307      F2311   1.357       .  S
C2308      H2312   1.083       .  S
C2313      C2314   1.404       .  A
C2313      C2318   1.403       .  A
C2313      H2323   1.083       .  S
C2314      C2315   1.407       .  A
C2314      C2319   1.487       .  S
C2315      C2316   1.398       .  A
C2315      F2320   1.358       .  S
C2316      C2317   1.405       .  A
C2316      H2321   1.082       .  S
C2317      C2318   1.411       .  A
C2318      F2322   1.357       .  S
C2319      C2324   1.407       .  A
C2319      C2328   1.405       .  A
C2324      C2325   1.403       .  A
C2324      F2329   1.358       .  S
C2325      C2326   1.404       .  A
C2325      H2330   1.083       .  S
C2326      C2327   1.404       .  A
C2327      C2328   1.400       .  A
C2327      F2331   1.357       .  S
C2328      H2332   1.083       .  S
C2333      C2334   1.406       .  A
C2333      C2338   1.400       .  A
C2333      H2343   1.083       .  S
C2334      C2335   1.408       .  A
C2334      C2339   1.493       .  S
C2335      C2336   1.404       .  A
C2335      F2340   1.357       .  S
C2336      C2337   1.407       .  A
C2336      H2341   1.083       .  S
C2337      C2338   1.409       .  A
C2338      F2342   1.357       .  S
C2339      C2344   1.409       .  A
C2339      C2348   1.407       .  A
C2344      C2345   1.403       .  A
C2344      F2349   1.358       .  S
C2345      C2346   1.405       .  A
C2345      H2350   1.084       .  S
C2346      C2347   1.405       .  A
C2347      C2348   1.402       .  A
C2347      F2351   1.357       .  S
C2348      H2352   1.083       .  S
C2353      C2354   1.405       .  A
C2353      C2358   1.400       .  A
C2353      H2363   1.083       .  S
C2354      C2355   1.407       .  A
C2354      C2359   1.485       .  S
C2355      C2356   1.399       .  A
C2355      F2360   1.357       .  S
C2356      C2357   1.402       .  A
C2356      H2361   1.084       .  S
C2357      C2358   1.405       .  A
C2358      F2362   1.357       .  S
C2359      C2364   1.408       .  A
C2359      C2368   1.404       .  A
C2364      C2365   1.398       .  A
C2364      F2369   1.358       .  S
C2365      C2366   1.406       .  A
C2365      H2370   1.083       .  S
C2366      C2367   1.409       .  A
C2367      C2368   1.401       .  A
C2367      F2371   1.356       .  S
C2368      H2372   1.083       .  S
C2373      C2374   1.404       .  A
C2373      C2378   1.398       .  A
C2373      H2383   1.083       .  S
C2374      C2375   1.408       .  A
C2374      C2379   1.487       .  S
C2375      C2376   1.399       .  A
C2375      F2380   1.357       .  S
C2376      C2377   1.405       .  A
C2376      H2381   1.083       .  S
C2377      C2378   1.410       .  A
C2378      F2382   1.356       .  S
C2379      C2384   1.406       .  A
C2379      C2388   1.402       .  A
C2384      C2385   1.399       .  A
C2384      F2389   1.358       .  S
C2385      C2386   1.410       .  A
C2385      H2390   1.080       .  S
C2386      C2387   1.414       .  A
C2387      C2388   1.398       .  A
C2387      F2391   1.354       .  S
C2388      H2392   1.083       .  S
C2393      C2394   1.405       .  A
C2393      C2398   1.399       .  A
C2393      H2403   1.083       .  S
C2394      C2395   1.409       .  A
C2394      C2399   1.490       .  S
C2395      C2396   1.403       .  A
C2395      F2400   1.358       .  S
C2396      C2397   1.406       .  A
C2396      H2401   1.083       .  S
C2397      C2398   1.408       .  A
C2398      F2402   1.357       .  S
C2399      C2404   1.411       .  A
C2399      C2408   1.404       .  A
C2404      C2405   1.406       .  A
C2404      F2409   1.357       .  S
C2405      C2406   1.404       .  A
C2405      H2410   1.083       .  S
C2406      C2407   1.405       .  A
C2407      C2408   1.396       .  A
C2407      F2411   1.358       .  S
C2408      H2412   1.083       .  S
C2413      C2414   1.404       .  A
C2413      C2418   1.398       .  A
C2413      H2423   1.083       .  S
C2414      C2415   1.408       .  A
C2414      C2419   1.484       .  S
C2415      C2416   1.402       .  A
C2415      F2420   1.357       .  S
C2416      C2417   1.402       .  A
C2416      H2421   1.083       .  S
C2417      C2418   1.404       .  A
C2418      F2422   1.358       .  S
C2419      C2424   1.407       .  A
C2419      C2428   1.403       .  A
C2424      C2425   1.404       .  A
C2424      F2429   1.357       .  S
C2425      C2426   1.407       .  A
C2425      H2430   1.083       .  S
C2426      C2427   1.407       .  A
C2427      C2428   1.398       .  A
C2427      F2431   1.357       .  S
C2428      H2432   1.083       .  S
C2433      C2434   1.407       .  A
C2433      C2438   1.405       .  A
C2433      H2443   1.083       .  S
C2434      C2435   1.410       .  A
C2434      C2439   1.495       .  S
C2435      C2436   1.401       .  A
C2435      F2440   1.357       .  S
C2436      C2437   1.404       .  A
C2436      H2441   1.083       .  S
C2437      C2438   1.409       .  A
C2438      F2442   1.357       .  S
C2439      C2444   1.411       .  A
C2439      C2448   1.406       .  A
C2444      C2445   1.404       .  A
C2444      F2449   1.357       .  S
C2445      C2446   1.403       .  A
C2445      H2450   1.083       .  S
C2446      C2447   1.405       .  A
C2447      C2448   1.401       .  A
C2447      F2451   1.358       .  S
C2448      H2452   1.083       .  S
C2453      C2454   1.405       .  A
C2453      C2458   1.402       .  A
C2453      H2463   1.083       .  S
C2454      C2455   1.406       .  A
C2454      C2459   1.485       .  S
C2455      C2456   1.401       .  A
C2455      F2460   1.358       .  S
C2456      C2457   1.405       .  A
C2456      H2461   1.083       .  S
C2457      C2458   1.404       .  A
C2458      F2462   1.357       .  S
C2459      C2464   1.405       .  A
C2459      C2468   1.404       .  A
C2464      C2465   1.404       .  A
C2464      F2469   1.357       .  S
C2465      C2466   1.408       .  A
C2465      H2470   1.083       .  S
C2466      C2467   1.408       .  A
C2467      C2468   1.400       .  A
C2467      F2471   1.357       .  S
C2468      H2472   1.084       .  S
C2473      C2474   1.406       .  A
C2473      C2478   1.403       .  A
C2473      H2483   1.083       .  S
C2474      C2475   1.410   1_545  A
C2474      C2479   1.499       .  S
C2475      C2476   1.406       .  A
C2475      F2480   1.357       .  S
C2476      C2477   1.408   1_565  A
C2476      H2481   1.083       .  S
C2477      C2478   1.410       .  A
C2478      F2482   1.356       .  S
C2479      C2484   1.408       .  A
C2479      C2488   1.406   1_545  A
C2484      C2485   1.403   1_556  A
C2484      F2489   1.357       .  S
C2485      C2486   1.409       .  A
C2485      H2490   1.082       .  S
C2486      C2487   1.414   1_545  A
C2487      C2488   1.405   1_554  A
C2487      F2491   1.355       .  S
C2488      H2492   1.083       .  S
C2493      C2494   1.406       .  A
C2493      C2498   1.401       .  A
C2493      H2503   1.083       .  S
C2494      C2495   1.406       .  A
C2494      C2499   1.482       .  S
C2495      C2496   1.395       .  A
C2495      F2500   1.358       .  S
C2496      C2497   1.404       .  A
C2496      H2501   1.084       .  S
C2497      C2498   1.404       .  A
C2498      F2502   1.357       .  S
C2499      C2504   1.405       .  A
C2499      C2508   1.403       .  A
C2504      C2505   1.400       .  A
C2504      F2509   1.357       .  S
C2505      C2506   1.407       .  A
C2505      H2510   1.082       .  S
C2506      C2507   1.410       .  A
C2507      C2508   1.397       .  A
C2507      F2511   1.357       .  S
C2508      H2512   1.083       .  S
C2513      C2514   1.405       .  A
C2513      C2518   1.403       .  A
C2513      H2523   1.083       .  S
C2514      C2515   1.408       .  A
C2514      C2519   1.490       .  S
C2515      C2516   1.397       .  A
C2515      F2520   1.357       .  S
C2516      C2517   1.406       .  A
C2516      H2521   1.082       .  S
C2517      C2518   1.412       .  A
C2518      F2522   1.356       .  S
C2519      C2524   1.410       .  A
C2519      C2528   1.405       .  A
C2524      C2525   1.402       .  A
C2524      F2529   1.358       .  S
C2525      C2526   1.402       .  A
C2525      H2530   1.083       .  S
C2526      C2527   1.405       .  A
C2527      C2528   1.399       .  A
C2527      F2531   1.357       .  S
C2528      H2532   1.083       .  S
C2533      C2534   1.405       .  A
C2533      C2538   1.398       .  A
C2533      H2543   1.083       .  S
C2534      C2535   1.407       .  A
C2534      C2539   1.484       .  S
C2535      C2536   1.399       .  A
C2535      F2540   1.358       .  S
C2536      C2537   1.405       .  A
C2536      H2541   1.083       .  S
C2537      C2538   1.407       .  A
C2538      F2542   1.357       .  S
C2539      C2544   1.410       .  A
C2539      C2548   1.403       .  A
C2544      C2545   1.402       .  A
C2544      F2549   1.357       .  S
C2545      C2546   1.403       .  A
C2545      H2550   1.083       .  S
C2546      C2547   1.404       .  A
C2547      C2548   1.394       .  A
C2547      F2551   1.358       .  S
C2548      H2552   1.083       .  S
C2553      C2554   1.405       .  A
C2553      C2558   1.402       .  A
C2553      H2563   1.083   1_556  S
C2554      C2555   1.406       .  A
C2554      C2559   1.487   1_455  S
C2555      C2556   1.398       .  A
C2555      F2560   1.357       .  S
C2556      C2557   1.405       .  A
C2556      H2561   1.083       .  S
C2557      C2558   1.410       .  A
C2558      F2562   1.357   1_556  S
C2559      C2564   1.405       .  A
C2559      C2568   1.402       .  A
C2564      C2565   1.402       .  A
C2564      F2569   1.358   1_556  S
C2565      C2566   1.410       .  A
C2565      H2570   1.081   1_556  S
C2566      C2567   1.412       .  A
C2567      C2568   1.398       .  A
C2567      F2571   1.355       .  S
C2568      H2572   1.083       .  S
C2573      C2574   1.402       .  A
C2573      C2578   1.399       .  A
C2573      H2583   1.084       .  S
C2574      C2575   1.404       .  A
C2574      C2579   1.481       .  S
C2575      C2576   1.402       .  A
C2575      F2580   1.357       .  S
C2576      C2577   1.407       .  A
C2576      H2581   1.083       .  S
C2577      C2578   1.410       .  A
C2578      F2582   1.357       .  S
C2579      C2584   1.407       .  A
C2579      C2588   1.401       .  A
C2584      C2585   1.404       .  A
C2584      F2589   1.357       .  S
C2585      C2586   1.405       .  A
C2585      H2590   1.083       .  S
C2586      C2587   1.408       .  A
C2587      C2588   1.396       .  A
C2587      F2591   1.358       .  S
C2588      H2592   1.084       .  S
C2593      C2594   1.405       .  A
C2593      C2598   1.395       .  A
C2593      H2603   1.083       .  S
C2594      C2595   1.407       .  A
C2594      C2599   1.491       .  S
C2595      C2596   1.405       .  A
C2595      F2600   1.357       .  S
C2596      C2597   1.410       .  A
C2596      H2601   1.082       .  S
C2597      C2598   1.410       .  A
C2598      F2602   1.356       .  S
C2599      C2604   1.409       .  A
C2599      C2608   1.408       .  A
C2604      C2605   1.396       .  A
C2604      F2609   1.358       .  S
C2605      C2606   1.401       .  A
C2605      H2610   1.084       .  S
C2606      C2607   1.403       .  A
C2607      C2608   1.403       .  A
C2607      F2611   1.357       .  S
C2608      H2612   1.083       .  S
C2613      C2614   1.405       .  A
C2613      C2618   1.399       .  A
C2613      H2623   1.083       .  S
C2614      C2615   1.409       .  A
C2614      C2619   1.489       .  S
C2615      C2616   1.401       .  A
C2615      F2620   1.357       .  S
C2616      C2617   1.402       .  A
C2616      H2621   1.083       .  S
C2617      C2618   1.405       .  A
C2618      F2622   1.358       .  S
C2619      C2624   1.407       .  A
C2619      C2628   1.406       .  A
C2624      C2625   1.402       .  A
C2624      F2629   1.357       .  S
C2625      C2626   1.407       .  A
C2625      H2630   1.083       .  S
C2626      C2627   1.408       .  A
C2627      C2628   1.399       .  A
C2627      F2631   1.357       .  S
C2628      H2632   1.083       .  S
C2633      C2634   1.405       .  A
C2633      C2638   1.404       .  A
C2633      H2643   1.083       .  S
C2634      C2635   1.408       .  A
C2634      C2639   1.491       .  S
C2635      C2636   1.399       .  A
C2635      F2640   1.357       .  S
C2636      C2637   1.406       .  A
C2636      H2641   1.082       .  S
C2637      C2638   1.413       .  A
C2638      F2642   1.356       .  S
C2639      C2644   1.410       .  A
C2639      C2648   1.405       .  A
C2644      C2645   1.402       .  A
C2644      F2649   1.357       .  S
C2645      C2646   1.402       .  A
C2645      H2650   1.083       .  S
C2646      C2647   1.405       .  A
C2647      C2648   1.400       .  A
C2647      F2651   1.358       .  S
C2648      H2652   1.083       .  S
C2653      C2654   1.404   1_655  A
C2653      C2658   1.401       .  A
C2653      H2663   1.083       .  S
C2654      C2655   1.406   1_455  A
C2654      C2659   1.491       .  S
C2655      C2656   1.402       .  A
C2655      F2660   1.357       .  S
C2656      C2657   1.409       .  A
C2656      H2661   1.082       .  S
C2657      C2658   1.413       .  A
C2658      F2662   1.356   1_556  S
C2659      C2664   1.408       .  A
C2659      C2668   1.406       .  A
C2664      C2665   1.401       .  A
C2664      F2669   1.357       .  S
C2665      C2666   1.406       .  A
C2665      H2670   1.083       .  S
C2666      C2667   1.408       .  A
C2667      C2668   1.402       .  A
C2667      F2671   1.357       .  S
C2668      H2672   1.083       .  S
C2673      C2674   1.405       .  A
C2673      C2678   1.398       .  A
C2673      H2683   1.083       .  S
C2674      C2675   1.411       .  A
C2674      C2679   1.494       .  S
C2675      C2676   1.407       .  A
C2675      F2680   1.357       .  S
C2676      C2677   1.407       .  A
C2676      H2681   1.083       .  S
C2677      C2678   1.407       .  A
C2678      F2682   1.356       .  S
C2679      C2684   1.412       .  A
C2679      C2688   1.406       .  A
C2684      C2685   1.407       .  A
C2684      F2689   1.357       .  S
C2685      C2686   1.403       .  A
C2685      H2690   1.083       .  S
C2686      C2687   1.405       .  A
C2687      C2688   1.399       .  A
C2687      F2691   1.357       .  S
C2688      H2692   1.083       .  S
C2693      C2694   1.408       .  A
C2693      C2698   1.402       .  A
C2693      H2703   1.083       .  S
C2694      C2695   1.410       .  A
C2694      C2699   1.496       .  S
C2695      C2696   1.403       .  A
C2695      F2700   1.357       .  S
C2696      C2697   1.403       .  A
C2696      H2701   1.083       .  S
C2697      C2698   1.404       .  A
C2698      F2702   1.357       .  S
C2699      C2704   1.409       .  A
C2699      C2708   1.406       .  A
C2704      C2705   1.406       .  A
C2704      F2709   1.357       .  S
C2705      C2706   1.409       .  A
C2705      H2710   1.083       .  S
C2706      C2707   1.408       .  A
C2707      C2708   1.399       .  A
C2707      F2711   1.356       .  S
C2708      H2712   1.083       .  S
C2713      C2714   1.404       .  A
C2713      C2718   1.397       .  A
C2713      H2723   1.083       .  S
C2714      C2715   1.408       .  A
C2714      C2719   1.483       .  S
C2715      C2716   1.401       .  A
C2715      F2720   1.357       .  S
C2716      C2717   1.402       .  A
C2716      H2721   1.083       .  S
C2717      C2718   1.404       .  A
C2718      F2722   1.358       .  S
C2719      C2724   1.405       .  A
C2719      C2728   1.405       .  A
C2724      C2725   1.401       .  A
C2724      F2729   1.357       .  S
C2725      C2726   1.406       .  A
C2725      H2730   1.083       .  S
C2726      C2727   1.407       .  A
C2727      C2728   1.399       .  A
C2727      F2731   1.357       .  S
C2728      H2732   1.083       .  S
C2733      C2734   1.411       .  A
C2733      C2738   1.402       .  A
C2733      H2743   1.082       .  S
C2734      C2735   1.410       .  A
C2734      C2739   1.500       .  S
C2735      C2736   1.395       .  A
C2735      F2740   1.357       .  S
C2736      C2737   1.405       .  A
C2736      H2741   1.083       .  S
C2737      C2738   1.407       .  A
C2738      F2742   1.355       .  S
C2739      C2744   1.409       .  A
C2739      C2748   1.412       .  A
C2744      C2745   1.393       .  A
C2744      F2749   1.357       .  S
C2745      C2746   1.407       .  A
C2745      H2750   1.083       .  S
C2746      C2747   1.408       .  A
C2747      C2748   1.404       .  A
C2747      F2751   1.355       .  S
C2748      H2752   1.082       .  S
C2753      C2754   1.409       .  A
C2753      C2758   1.401       .  A
C2753      H2763   1.083       .  S
C2754      C2755   1.408       .  A
C2754      C2759   1.489       .  S
C2755      C2756   1.398       .  A
C2755      F2760   1.357       .  S
C2756      C2757   1.403       .  A
C2756      H2761   1.083       .  S
C2757      C2758   1.404       .  A
C2758      F2762   1.357       .  S
C2759      C2764   1.411       .  A
C2759      C2768   1.405       .  A
C2764      C2765   1.403       .  A
C2764      F2769   1.357       .  S
C2765      C2766   1.402       .  A
C2765      H2770   1.082       .  S
C2766      C2767   1.404       .  A
C2767      C2768   1.396       .  A
C2767      F2771   1.357       .  S
C2768      H2772   1.083       .  S
C2773      C2774   1.402       .  A
C2773      C2778   1.397       .  A
C2773      H2783   1.083       .  S
C2774      C2775   1.408       .  A
C2774      C2779   1.483       .  S
C2775      C2776   1.404       .  A
C2775      F2780   1.357       .  S
C2776      C2777   1.404       .  A
C2776      H2781   1.083       .  S
C2777      C2778   1.406       .  A
C2778      F2782   1.358       .  S
C2779      C2784   1.404       .  A
C2779      C2788   1.403       .  A
C2784      C2785   1.401       .  A
C2784      F2789   1.357       .  S
C2785      C2786   1.408       .  A
C2785      H2790   1.082       .  S
C2786      C2787   1.410       .  A
C2787      C2788   1.400       .  A
C2787      F2791   1.357       .  S
C2788      H2792   1.083       .  S
C2793      C2794   1.411       .  A
C2793      C2798   1.403       .  A
C2793      H2803   1.082       .  S
C2794      C2795   1.408       .  A
C2794      C2799   1.500       .  S
C2795      C2796   1.396       .  A
C2795      F2800   1.357       .  S
C2796      C2797   1.410       .  A
C2796      H2801   1.083       .  S
C2797      C2798   1.408       .  A
C2798      F2802   1.352       .  S
C2799      C2804   1.411       .  A
C2799      C2808   1.413       .  A
C2804      C2805   1.393       .  A
C2804      F2809   1.357       .  S
C2805      C2806   1.402       .  A
C2805      H2810   1.084       .  S
C2806      C2807   1.407       .  A
C2807      C2808   1.405       .  A
C2807      F2811   1.357       .  S
C2808      H2812   1.082       .  S
C2813      C2814   1.407       .  A
C2813      C2818   1.403       .  A
C2813      H2823   1.083       .  S
C2814      C2815   1.406       .  A
C2814      C2819   1.485       .  S
C2815      C2816   1.399       .  A
C2815      F2820   1.357       .  S
C2816      C2817   1.403       .  A
C2816      H2821   1.083       .  S
C2817      C2818   1.405       .  A
C2818      F2822   1.357       .  S
C2819      C2824   1.407       .  A
C2819      C2828   1.401       .  A
C2824      C2825   1.405       .  A
C2824      F2829   1.357       .  S
C2825      C2826   1.409       .  A
C2825      H2830   1.083       .  S
C2826      C2827   1.411       .  A
C2827      C2828   1.396       .  A
C2827      F2831   1.356       .  S
C2828      H2832   1.084       .  S
C2833      C2834   1.409       .  A
C2833      C2838   1.406       .  A
C2833      H2843   1.083       .  S
C2834      C2835   1.407       .  A
C2834      C2839   1.489       .  S
C2835      C2836   1.394       .  A
C2835      F2840   1.358       .  S
C2836      C2837   1.402       .  A
C2836      H2841   1.084       .  S
C2837      C2838   1.406       .  A
C2838      F2842   1.357       .  S
C2839      C2844   1.407       .  A
C2839      C2848   1.406       .  A
C2844      C2845   1.402       .  A
C2844      F2849   1.357       .  S
C2845      C2846   1.407       .  A
C2845      H2850   1.083       .  S
C2846      C2847   1.406       .  A
C2847      C2848   1.398       .  A
C2847      F2851   1.356       .  S
C2848      H2852   1.083       .  S
C2853      C2854   1.401       .  A
C2853      C2858   1.396       .  A
C2853      H2863   1.084       .  S
C2854      C2855   1.403       .  A
C2854      C2859   1.476       .  S
C2855      C2856   1.403       .  A
C2855      F2860   1.357       .  S
C2856      C2857   1.407       .  A
C2856      H2861   1.082       .  S
C2857      C2858   1.407       .  A
C2858      F2862   1.356       .  S
C2859      C2864   1.404       .  A
C2859      C2868   1.401       .  A
C2864      C2865   1.401       .  A
C2864      F2869   1.357       .  S
C2865      C2866   1.406       .  A
C2865      H2870   1.082       .  S
C2866      C2867   1.409       .  A
C2867      C2868   1.400       .  A
C2867      F2871   1.356       .  S
C2868      H2872   1.083       .  S
C2873      C2874   1.405       .  A
C2873      C2878   1.404       .  A
C2873      H2883   1.083       .  S
C2874      C2875   1.409       .  A
C2874      C2879   1.488       .  S
C2875      C2876   1.396       .  A
C2875      F2880   1.358       .  S
C2876      C2877   1.402       .  A
C2876      H2881   1.083       .  S
C2877      C2878   1.409       .  A
C2878      F2882   1.357       .  S
C2879      C2884   1.409       .  A
C2879      C2888   1.405       .  A
C2884      C2885   1.404       .  A
C2884      F2889   1.357       .  S
C2885      C2886   1.404       .  A
C2885      H2890   1.083       .  S
C2886      C2887   1.404       .  A
C2887      C2888   1.396       .  A
C2887      F2891   1.358       .  S
C2888      H2892   1.083       .  S
C2893      C2894   1.405       .  A
C2893      C2898   1.400       .  A
C2893      H2903   1.083       .  S
C2894      C2895   1.407       .  A
C2894      C2899   1.484       .  S
C2895      C2896   1.396       .  A
C2895      F2900   1.358       .  S
C2896      C2897   1.405       .  A
C2896      H2901   1.083       .  S
C2897      C2898   1.409       .  A
C2898      F2902   1.356       .  S
C2899      C2904   1.408       .  A
C2899      C2908   1.406       .  A
C2904      C2905   1.396       .  A
C2904      F2909   1.357       .  S
C2905      C2906   1.400       .  A
C2905      H2910   1.084       .  S
C2906      C2907   1.404       .  A
C2907      C2908   1.400       .  A
C2907      F2911   1.357       .  S
C2908      H2912   1.083       .  S
C2913      C2914   1.405       .  A
C2913      C2918   1.401       .  A
C2913      H2923   1.083       .  S
C2914      C2915   1.408       .  A
C2914      C2919   1.485       .  S
C2915      C2916   1.396       .  A
C2915      F2920   1.358       .  S
C2916      C2917   1.403       .  A
C2916      H2921   1.083       .  S
C2917      C2918   1.408       .  A
C2918      F2922   1.357       .  S
C2919      C2924   1.408       .  A
C2919      C2928   1.406       .  A
C2924      C2925   1.399       .  A
C2924      F2929   1.357       .  S
C2925      C2926   1.401       .  A
C2925      H2930   1.083       .  S
C2926      C2927   1.403       .  A
C2927      C2928   1.399       .  A
C2927      F2931   1.358       .  S
C2928      H2932   1.083       .  S
C2933      C2934   1.402       .  A
C2933      C2938   1.397       .  A
C2933      H2943   1.084       .  S
C2934      C2935   1.404       .  A
C2934      C2939   1.481       .  S
C2935      C2936   1.403       .  A
C2935      F2940   1.357       .  S
C2936      C2937   1.408       .  A
C2936      H2941   1.083       .  S
C2937      C2938   1.409       .  A
C2938      F2942   1.357       .  S
C2939      C2944   1.406       .  A
C2939      C2948   1.402       .  A
C2944      C2945   1.402       .  A
C2944      F2949   1.357       .  S
C2945      C2946   1.404       .  A
C2945      H2950   1.083       .  S
C2946      C2947   1.408       .  A
C2947      C2948   1.399       .  A
C2947      F2951   1.358       .  S
C2948      H2952   1.084       .  S
C2953      C2954   1.403       .  A
C2953      C2958   1.401       .  A
C2953      H2963   1.083       .  S
C2954      C2955   1.405       .  A
C2954      C2959   1.483       .  S
C2955      C2956   1.398       .  A
C2955      F2960   1.358       .  S
C2956      C2957   1.406       .  A
C2956      H2961   1.082       .  S
C2957      C2958   1.411       .  A
C2958      F2962   1.356       .  S
C2959      C2964   1.406       .  A
C2959      C2968   1.403       .  A
C2964      C2965   1.401       .  A
C2964      F2969   1.358       .  S
C2965      C2966   1.407       .  A
C2965      H2970   1.083       .  S
C2966      C2967   1.408       .  A
C2967      C2968   1.397       .  A
C2967      F2971   1.357       .  S
C2968      H2972   1.083       .  S
C2973      C2974   1.402       .  A
C2973      C2978   1.403       .  A
C2973      H2983   1.083       .  S
C2974      C2975   1.403       .  A
C2974      C2979   1.475       .  S
C2975      C2976   1.395       .  A
C2975      F2980   1.358       .  S
C2976      C2977   1.404       .  A
C2976      H2981   1.083       .  S
C2977      C2978   1.411       .  A
C2978      F2982   1.357       .  S
C2979      C2984   1.404       .  A
C2979      C2988   1.404       .  A
C2984      C2985   1.398       .  A
C2984      F2989   1.358       .  S
C2985      C2986   1.403       .  A
C2985      H2990   1.083       .  S
C2986      C2987   1.403       .  A
C2987      C2988   1.399       .  A
C2987      F2991   1.357       .  S
C2988      H2992   1.083       .  S
C2993      C2994   1.408       .  A
C2993      C2998   1.404       .  A
C2993      H3003   1.083       .  S
C2994      C2995   1.406       .  A
C2994      C2999   1.487       .  S
C2995      C2996   1.397       .  A
C2995      F3000   1.358       .  S
C2996      C2997   1.405       .  A
C2996      H3001   1.084       .  S
C2997      C2998   1.405       .  A
C2998      F3002   1.357       .  S
C2999      C3004   1.407       .  A
C2999      C3008   1.405       .  A
C3004      C3005   1.400       .  A
C3004      F3009   1.358       .  S
C3005      C3006   1.405       .  A
C3005      H3010   1.083       .  S
C3006      C3007   1.409       .  A
C3007      C3008   1.402       .  A
C3007      F3011   1.357       .  S
C3008      H3012   1.083       .  S
C3013      C3014   1.404       .  A
C3013      C3018   1.396       .  A
C3013      H3023   1.083       .  S
C3014      C3015   1.407       .  A
C3014      C3019   1.483       .  S
C3015      C3016   1.402       .  A
C3015      F3020   1.357       .  S
C3016      C3017   1.406       .  A
C3016      H3021   1.083       .  S
C3017      C3018   1.406       .  A
C3018      F3022   1.357       .  S
C3019      C3024   1.406       .  A
C3019      C3028   1.406       .  A
C3024      C3025   1.397       .  A
C3024      F3029   1.358       .  S
C3025      C3026   1.404       .  A
C3025      H3030   1.084       .  S
C3026      C3027   1.406       .  A
C3027      C3028   1.401       .  A
C3027      F3031   1.357       .  S
C3028      H3032   1.083       .  S
C3033      C3034   1.404       .  A
C3033      C3038   1.396       .  A
C3033      H3043   1.083       .  S
C3034      C3035   1.411       .  A
C3034      C3039   1.491       .  S
C3035      C3036   1.405       .  A
C3035      F3040   1.357       .  S
C3036      C3037   1.404       .  A
C3036      H3041   1.083       .  S
C3037      C3038   1.406       .  A
C3038      F3042   1.358       .  S
C3039      C3044   1.410       .  A
C3039      C3048   1.406       .  A
C3044      C3045   1.402       .  A
C3044      F3049   1.357       .  S
C3045      C3046   1.404       .  A
C3045      H3050   1.083       .  S
C3046      C3047   1.406       .  A
C3047      C3048   1.400       .  A
C3047      F3051   1.357       .  S
C3048      H3052   1.083       .  S
C3053      C3054   1.403       .  A
C3053      C3058   1.399       .  A
C3053      H3063   1.083       .  S
C3054      C3055   1.407   1_455  A
C3054      C3059   1.486       .  S
C3055      C3056   1.401       .  A
C3055      F3060   1.358       .  S
C3056      C3057   1.407   1_655  A
C3056      H3061   1.083       .  S
C3057      C3058   1.410       .  A
C3058      F3062   1.356       .  S
C3059      C3064   1.406   1_545  A
C3059      C3068   1.404   1_445  A
C3064      C3065   1.400       .  A
C3064      F3069   1.357   1_565  S
C3065      C3066   1.407       .  A
C3065      H3070   1.082       .  S
C3066      C3067   1.410   1_455  A
C3067      C3068   1.400       .  A
C3067      F3071   1.357       .  S
C3068      H3072   1.083   1_565  S
