geometry optimzed in LAMMPS
_audit_creation_date              2020-11-30 
_audit_creation_method            'lammps2cif' 
_symmetry_space_group_name_H-M    'P1' 
_symmetry_Int_Tables_number       1 
_symmetry_cell_setting            triclinic 
loop_ 
_symmetry_equiv_pos_as_xyz 
  x,y,z 
_cell_length_a                    43.236062820320086 
_cell_length_b                    43.311609397396786 
_cell_length_c                    43.12348735185744 
_cell_angle_alpha                 90.05611048493786 
_cell_angle_beta                  90.16475117830478 
_cell_angle_gamma                 90.0381287380271 
loop_ 
_atom_site_label 
_atom_site_type_symbol 
_atom_site_fract_x 
_atom_site_fract_y 
_atom_site_fract_z 
_atom_site_charge 
C1          C  0.76403937  0.72759009  0.76988995     0.04070
C2          C  0.73779270  0.74527605  0.77666506    -0.12080
C3          C  0.73266935  0.77340976  0.76146106     0.01570
C4          C  0.75432377  0.78363928  0.73924180    -0.10610
C5          C  0.77991369  0.76537772  0.73103038     0.04060
C6          C  0.78438029  0.73711921  0.74653641    -0.10030
H7          H  0.72152127  0.73708213  0.79385118     0.09650
H8          H  0.75099036  0.80581435  0.72813623     0.07180
H9          H  0.80407507  0.72272228  0.74092487     0.07030
C10         C  0.27133143  0.76164903  0.29721241     0.04070
C11         C  0.25027582  0.73938412  0.28693972    -0.12080
C12         C  0.23531682  0.74308735  0.25848672     0.01570
C13         C  0.24312555  0.76790617  0.23939395    -0.10610
C14         C  0.26182591  0.79229470  0.25051888     0.04060
C15         C  0.27559802  0.78890011  0.28004323    -0.10030
H16         H  0.24519019  0.71948789  0.30128336     0.09650
H17         H  0.23281537  0.76898158  0.21651855     0.07180
H18         H  0.28961893  0.80711599  0.28992260     0.07030
C19         C  0.79328404  0.77673403  0.26368097     0.04070
C20         C  0.77002943  0.78683892  0.28410079    -0.12080
C21         C  0.74539352  0.76756349  0.29180250     0.01570
C22         C  0.74052037  0.74028481  0.27525870    -0.10610
C23         C  0.76167783  0.73104829  0.25262589     0.04060
C24         C  0.78882076  0.74842610  0.24805656    -0.10030
H25         H  0.77205094  0.80884809  0.29586442     0.09650
H26         H  0.72058518  0.72602022  0.28042123     0.07180
H27         H  0.80638939  0.73948816  0.23265650     0.07030
C28         C  0.23211342  0.27196305  0.26312255     0.04070
C29         C  0.25070506  0.27631711  0.23670290    -0.12080
C30         C  0.28110581  0.26423374  0.23535041     0.01570
C31         C  0.29105802  0.24610177  0.26069985    -0.10610
C32         C  0.27021563  0.23651317  0.28344096     0.04060
C33         C  0.24135699  0.25075240  0.28566671    -0.10030
H34         H  0.24104419  0.28935531  0.21770933     0.09650
H35         H  0.31449188  0.23756869  0.26210705     0.07180
H36         H  0.22612058  0.24511417  0.30475630     0.07030
C37         C  0.79010356  0.24508632  0.26802871     0.04070
C38         C  0.78169725  0.26857680  0.28859956    -0.12080
C39         C  0.76210952  0.29289574  0.27903147     0.01570
C40         C  0.74825600  0.29060979  0.24945095    -0.10610
C41         C  0.75303852  0.26442087  0.23073703     0.04060
C42         C  0.77495708  0.24240428  0.23952202    -0.10030
H43         H  0.79200489  0.26863392  0.31149739     0.09650
H44         H  0.73354737  0.30882937  0.24072571     0.07180
H45         H  0.78019619  0.22321278  0.22426593     0.07030
C46         C  0.76733446  0.28933208  0.73929507     0.04070
C47         C  0.73810921  0.27562902  0.73889808    -0.12080
C48         C  0.72968837  0.25518607  0.76241618     0.01570
C49         C  0.74944751  0.25111098  0.78807675    -0.10610
C50         C  0.78003599  0.26301976  0.78792320     0.04060
C51         C  0.78893816  0.28057548  0.76185597    -0.10030
H52         H  0.72209190  0.28057785  0.72017223     0.09650
H53         H  0.74085458  0.23797029  0.80750403     0.07180
H54         H  0.81243886  0.28850161  0.75906334     0.07030
C55         C  0.24711452  0.76056410  0.73449817     0.04070
C56         C  0.23912350  0.78320436  0.75675090    -0.12080
C57         C  0.25669432  0.78757792  0.78390650     0.01570
C58         C  0.27937171  0.76544485  0.79102949    -0.10610
C59         C  0.28896325  0.74416648  0.76871438     0.04060
C60         C  0.27351551  0.74244497  0.74016983    -0.10030
H61         H  0.21996688  0.79834564  0.75216551     0.09650
H62         H  0.29184724  0.76667872  0.81282586     0.07180
H63         H  0.28243487  0.72719129  0.72243183     0.07030
O64         O  0.05325679  0.04592507  0.98476788    -0.87410
C65         C  0.10714155  0.03566336  0.06027689     0.88620
Mg66       Mg  0.02127764  0.08339669  0.98220957     1.58150
O67         O  0.04462325  0.98373311  0.05664103    -0.87140
O68         O  0.05186550  0.99523024  0.98441473    -0.74470
C69         C  0.95558117  0.09002775  0.12158252     0.93670
O70         O  0.08301155  0.09775633  0.02905727    -0.74280
O71         O  0.95933507  0.10815153  0.09861369    -0.81790
Mg72       Mg  0.09969991  0.05807273  0.99793702     1.57960
C73         C  0.99155437  0.96695829  0.13396508     0.93590
O74         O  0.12201224  0.02041242  0.96602048    -0.80050
H75         H  0.02028871  0.95192841  0.03334286    -0.05390
C76         C  0.03437593  0.05853120  0.11090120     0.88530
O77         O  0.98129014  0.05248063  0.99823268    -0.74560
O78         O  0.09490466  0.02715990  0.03574912    -0.87320
O79         O  0.01942861  0.96462596  0.12458395    -0.80130
C80         C  0.11634522  0.95726836  0.09180436     0.93710
C81         C  0.13126654  0.99256615  0.96955829     0.93560
Mg82       Mg  0.97880412  0.02399530  0.08686361     1.57950
O83         O  0.96256080  0.06152184  0.12032777    -0.80060
O84         O  0.99377411  0.98391076  0.05516151    -0.74300
O85         O  0.11565096  0.96494103  0.06338927    -0.80140
O86         O  0.10488087  0.09434934  0.96020793    -0.81850
O87         O  0.96345853  0.12504199  0.02410624    -0.80170
C88         C  0.01980073  0.97213213  0.04809491     0.88000
O89         O  0.98102838  0.05574188  0.04915506    -0.87310
O90         O  0.02551463  0.03431483  0.09857326    -0.87420
O91         O  0.02738390  0.08477927  0.09991011    -0.74470
Mg92       Mg  0.08270388  0.98061871  0.02537585     1.57970
O93         O  0.09270299  0.95953926  0.10913689    -0.81850
H94         H  0.03086472  0.02198009  0.95194642    -0.05570
O95         O  0.03236401  0.09630787  0.02874074    -0.87120
H96         H  0.05609563  0.12911458  0.05117737    -0.05400
H97         H  0.94874191  0.03246479  0.02543068    -0.05570
C98         C  0.05689293  0.10876452  0.03664512     0.87980
C99         C  0.04507731  0.02129136  0.97262088     0.88560
C100        C  0.96923377  0.04677049  0.02450160     0.88610
H101        H  0.04933072  0.05730690  0.13101997    -0.05550
O102        O  0.09615758  0.02830955  0.08654999    -0.74580
Mg103      Mg  0.99564922  0.10195465  0.06090998     1.58000
H104        H  0.12729682  0.05045802  0.05932963    -0.05570
C105        C  0.08703949  0.11757562  0.95714315     0.93600
O106        O  0.98665147  0.12152775  0.97817770    -0.81810
C107        C  0.96562820  0.13249421  0.99550584     0.93660
O108        O  0.12205409  0.97620062  0.99211872    -0.81790
Mg109      Mg  0.05660243  0.99691953  0.10322480     1.58180
O110        O  0.05867242  0.11666217  0.96493465    -0.80130
O111        O  0.97503972  0.98974529  0.12571899    -0.81820
C112        C  0.13055836  0.29658628  0.93873645     0.04070
C113        C  0.11899350  0.26695123  0.94561064    -0.12080
C114        C  0.12997021  0.24098678  0.92952104     0.01570
C115        C  0.15243640  0.24462496  0.90666887    -0.10610
C116        C  0.16412304  0.27387066  0.89968404     0.04060
C117        C  0.15341123  0.29984345  0.91580830    -0.10030
H118        H  0.10127215  0.26415597  0.96310223     0.09650
H119        H  0.16078569  0.22458856  0.89412746     0.07180
H120        H  0.16235181  0.32251334  0.91012250     0.07030
C121        C  0.93461332  0.13050572  0.30164757     0.04070
C122        C  0.91051804  0.15204450  0.30536637    -0.12080
C123        C  0.89396915  0.16264701  0.27935730     0.01570
C124        C  0.90132904  0.15130535  0.24987605    -0.10610
C125        C  0.92526989  0.13009433  0.24585799     0.04060
C126        C  0.94200724  0.11976212  0.27178370    -0.10030
H127        H  0.90478455  0.16052832  0.32827967     0.09650
H128        H  0.88853759  0.15937591  0.22978921     0.07180
H129        H  0.96048752  0.10314247  0.26877791     0.07030
C130        C  0.29582050  0.93390580  0.12956340     0.04070
C131        C  0.29806208  0.91106120  0.15299728    -0.12080
C132        C  0.27132214  0.90104746  0.16915148     0.01570
C133        C  0.24340772  0.91646908  0.16297482    -0.10610
C134        C  0.24009200  0.93448549  0.13651192     0.04060
C135        C  0.26621894  0.94321416  0.11979186    -0.10030
H136        H  0.32033432  0.90110801  0.15811045     0.09650
H137        H  0.22302790  0.91175073  0.17673777     0.07180
H138        H  0.26354730  0.95787595  0.09960596     0.07030
O139        O  0.96949507  0.54679559  0.54024528    -0.87410
C140        C  0.91792769  0.53525217  0.46378895     0.88620
Mg141      Mg  0.00186957  0.58415295  0.54216872     1.58150
O142        O  0.97815261  0.48102338  0.47027875    -0.87140
O143        O  0.96995855  0.49601563  0.54199004    -0.74470
C144        C  0.07448575  0.58179588  0.40560608     0.93670
O145        O  0.94307444  0.59671135  0.49229171    -0.74280
O146        O  0.07153256  0.59998731  0.42870498    -0.81790
Mg147      Mg  0.92387863  0.55946194  0.52495471     1.57960
C148        C  0.03233110  0.46093283  0.39386794     0.93590
O149        O  0.89930562  0.52447175  0.55793958    -0.80050
H150        H  0.00047240  0.44894447  0.49506009    -0.05390
C151        C  0.99392425  0.55386420  0.41401252     0.88530
O152        O  0.04201737  0.55154876  0.52951689    -0.74560
O153        O  0.92906132  0.52693867  0.48886797    -0.87320
O154        O  0.00401357  0.45949003  0.40216630    -0.80130
C155        C  0.90604997  0.45749637  0.43398318     0.93710
C156        C  0.88961314  0.49673663  0.55519606     0.93560
Mg157      Mg  0.04647194  0.51806750  0.44157709     1.57950
O158        O  0.06517932  0.55399613  0.40752686    -0.80060
O159        O  0.02890572  0.47950636  0.47365644    -0.74300
O160        O  0.90660257  0.46528821  0.46242542    -0.80140
O161        O  0.91783457  0.59724243  0.56073620    -0.81850
O162        O  0.06357748  0.62180599  0.50196879    -0.80170
C163        C  0.00222750  0.46876572  0.47992150     0.88000
O164        O  0.04420922  0.55128491  0.47853831    -0.87310
O165        O  0.00072313  0.52984367  0.42785846    -0.87420
O166        O  0.00209885  0.58017452  0.42409069    -0.74470
Mg167      Mg  0.93938292  0.48053906  0.50102246     1.57970
O168        O  0.93012064  0.45821637  0.41708524    -0.81850
H169        H  0.99094015  0.52339335  0.57402792    -0.05570
O170        O  0.99364484  0.59461168  0.49455037    -0.87120
H171        H  0.97132541  0.62593455  0.46888272    -0.05400
H172        H  0.07472451  0.52853631  0.50493919    -0.05570
C173        C  0.96964802  0.60671205  0.48479900     0.87980
C174        C  0.97702326  0.52234233  0.55316328     0.88560
C175        C  0.05471899  0.54349397  0.50414370     0.88610
H176        H  0.97994554  0.55248375  0.39320386    -0.05550
O177        O  0.92956897  0.52708104  0.43806920    -0.74580
Mg178      Mg  0.03251295  0.59751385  0.46426822     1.58000
H179        H  0.89831293  0.55073565  0.46377086    -0.05570
C180        C  0.93572617  0.62041078  0.56330708     0.93600
O181        O  0.03625141  0.62245460  0.54575601    -0.81810
C182        C  0.05868821  0.63195349  0.52941988     0.93660
O183        O  0.89930333  0.47870567  0.53410784    -0.81790
Mg184      Mg  0.96798916  0.49376966  0.42301179     1.58180
O185        O  0.96423193  0.61913791  0.55607538    -0.80130
O186        O  0.04991712  0.48247172  0.40348209    -0.81820
C187        C  0.72730139  0.43903837  0.39630252     0.04070
C188        C  0.72476585  0.41280722  0.37676113    -0.12080
C189        C  0.75084939  0.40202589  0.35990225     0.01570
C190        C  0.77866907  0.41861531  0.36285900    -0.10610
C191        C  0.78245819  0.44054853  0.38608761     0.04060
C192        C  0.75665857  0.45195114  0.40157801    -0.10030
H193        H  0.70295402  0.40064623  0.37570384     0.09650
H194        H  0.79879459  0.41215693  0.34944780     0.07180
H195        H  0.75969373  0.47004648  0.41869972     0.07030
C196        C  0.08797281  0.63156403  0.22629861     0.04070
C197        C  0.08153676  0.62163740  0.25667797    -0.12080
C198        C  0.10077316  0.63036569  0.28165139     0.01570
C199        C  0.12577578  0.65007821  0.27582073    -0.10610
C200        C  0.13115573  0.66189997  0.24610761     0.04060
C201        C  0.11258511  0.65221942  0.22119148    -0.10030
H202        H  0.06233018  0.60606099  0.26060766     0.09650
H203        H  0.14125649  0.65647200  0.29457636     0.07180
H204        H  0.11742304  0.66040645  0.19797407     0.07030
C205        C  0.90238541  0.79859086  0.59211768     0.04070
C206        C  0.88185928  0.80405564  0.61681201    -0.12080
C207        C  0.86722816  0.77912342  0.63157571     0.01570
C208        C  0.87293791  0.74888075  0.62171637    -0.10610
C209        C  0.89434084  0.74289300  0.59824484     0.04060
C210        C  0.90852239  0.76791378  0.58324960    -0.10030
H211        H  0.87753408  0.82740187  0.62470618     0.09650
H212        H  0.86102016  0.72988901  0.63287225     0.07180
H213        H  0.92495607  0.76348571  0.56485901     0.07030
O214        O  0.02220506  0.93485027  0.47275832    -0.87410
C215        C  0.98485370  0.02031541  0.47153319     0.88620
Mg216      Mg  0.04226906  0.91598361  0.51286827     1.58150
O217        O  0.05677132  0.01406590  0.43479759    -0.87140
O218        O  0.03626746  0.94502643  0.42520782    -0.74470
C219        C  0.13611712  0.02379571  0.56613888     0.93670
O220        O  0.98815915  0.97007323  0.52760789    -0.74280
O221        O  0.12389121  0.99867426  0.57521395    -0.81790
Mg222      Mg  0.97687040  0.95297092  0.47784057     1.57960
C223        C  0.12640890  0.07509856  0.44881935     0.93590
O224        O  0.96409477  0.93459602  0.42861930    -0.80050
H225        H  0.08318904  0.99601103  0.40138036    -0.05390
C226        C  0.05941284  0.04519421  0.52346223     0.88530
O227        O  0.09056627  0.92802660  0.49437602    -0.74560
O228        O  0.99424387  0.99605788  0.45954104    -0.87320
O229        O  0.09898193  0.07406676  0.43765546    -0.80130
C230        C  0.00450169  0.06843035  0.39829674     0.93710
C231        C  0.96433691  0.94481702  0.40082130     0.93560
Mg232      Mg  0.11463588  0.01803102  0.49241027     1.57950
O233        O  0.12894262  0.03531670  0.54003730    -0.80060
O234        O  0.10532903  0.00230986  0.44247394    -0.74300
O235        O  0.99793034  0.03979836  0.39950392    -0.80140
O236        O  0.95788663  0.90777281  0.49945703    -0.81850
O237        O  0.10069104  0.92915848  0.56488304    -0.80170
C238        C  0.08171254  0.00415846  0.42505299     0.88000
O239        O  0.09769488  0.97574120  0.50929523    -0.87310
O240        O  0.07002121  0.03779194  0.49782367    -0.87420
O241        O  0.06016781  0.02688576  0.54662419    -0.74470
Mg242      Mg  0.01712294  0.99337124  0.41546448     1.57970
O243        O  0.02680849  0.07966506  0.41410235    -0.81850
H244        H  0.04409534  0.90390882  0.44630053    -0.05570
O245        O  0.03717608  0.95908999  0.53605936    -0.87120
H246        H  0.01045945  0.97897088  0.56824996    -0.05400
H247        H  0.13012945  0.95202473  0.48639878    -0.05570
C248        C  0.01205041  0.96955864  0.54504678     0.87980
C249        C  0.03416782  0.92675345  0.44807229     0.88560
C250        C  0.10726369  0.95204704  0.49656577     0.88610
H251        H  0.04896454  0.06771545  0.52619654    -0.05550
O252        O  0.00177791  0.04434242  0.47358532    -0.74580
Mg253      Mg  0.07953695  0.97756666  0.55490145     1.58000
H254        H  0.96178355  0.02089398  0.48119563    -0.05570
C255        C  0.96917872  0.89364976  0.52285892     0.93600
O256        O  0.06410168  0.89476069  0.55401027    -0.81810
C257        C  0.09036006  0.90158607  0.56503421     0.93660
O258        O  0.97663803  0.97049543  0.39391321    -0.81790
Mg259      Mg  0.05056044  0.05794135  0.45651824     1.58180
O260        O  0.99657808  0.89904438  0.53200546    -0.80130
O261        O  0.13348085  0.06174398  0.47392062    -0.81820
C262        C  0.13264477  0.73033606  0.58501900     0.04070
C263        C  0.15166057  0.72711186  0.61162873    -0.12080
C264        C  0.17114961  0.75174445  0.62137648     0.01570
C265        C  0.17138143  0.77871326  0.60327239    -0.10610
C266        C  0.14788042  0.78420572  0.58200464     0.04060
C267        C  0.13009599  0.75952634  0.57115877    -0.10030
H268        H  0.15020455  0.70599570  0.62485312     0.09650
H269        H  0.18678826  0.79761970  0.60893622     0.07180
H270        H  0.11292698  0.76360561  0.55327447     0.07030
C271        C  0.29969069  0.08873177  0.39521364     0.04070
C272        C  0.30459109  0.11186410  0.37275803    -0.12080
C273        C  0.27966880  0.12978836  0.36194716     0.01570
C274        C  0.24998708  0.12445455  0.37375915    -0.10610
C275        C  0.24474882  0.10140078  0.39565314     0.04060
C276        C  0.26960921  0.08354357  0.40647845    -0.10030
H277        H  0.32766406  0.11596829  0.36393986     0.09650
H278        H  0.23074489  0.13853981  0.36597122     0.07180
H279        H  0.26566784  0.06609984  0.42402817     0.07030
C280        C  0.94296084  0.88650085  0.23071880     0.04070
C281        C  0.91677588  0.86719112  0.22948319    -0.12080
C282        C  0.90699156  0.85076161  0.25602404     0.01570
C283        C  0.92415280  0.85459702  0.28355676    -0.10610
C284        C  0.94566071  0.87845832  0.28633972     0.04060
C285        C  0.95699113  0.89238633  0.25942549    -0.10030
H286        H  0.90373077  0.86615492  0.20812700     0.09650
H287        H  0.91811643  0.84172713  0.30412334     0.07180
H288        H  0.97451198  0.91022366  0.26126731     0.07030
O289        O  0.51593204  0.43702107  0.97423749    -0.87410
C290        C  0.48168412  0.52413649  0.97035743     0.88620
Mg291      Mg  0.53448557  0.41796439  0.01498321     1.58150
O292        O  0.55369363  0.51423266  0.93509681    -0.87140
O293        O  0.53109728  0.44663223  0.92695242    -0.74470
C294        C  0.63082644  0.52542157  0.06727434     0.93670
O295        O  0.48108869  0.47394009  0.02747163    -0.74280
O296        O  0.61650287  0.50169864  0.07727482    -0.81790
Mg297      Mg  0.47098508  0.45665564  0.97753875     1.57960
C298        C  0.62569028  0.57277443  0.94805856     0.93590
O299        O  0.45951107  0.43745318  0.92786310    -0.80050
H300        H  0.57956073  0.49345743  0.90286586    -0.05390
C301        C  0.55524999  0.54784396  0.02220123     0.88530
O302        O  0.58367372  0.42863774  0.99825915    -0.74560
O303        O  0.49042159  0.49909469  0.95954176    -0.87320
O304        O  0.59836206  0.57259668  0.93667018    -0.80130
C305        C  0.50505346  0.56856695  0.89442517     0.93710
C306        C  0.46030352  0.44807930  0.90023041     0.93560
Mg307      Mg  0.61068664  0.51749384  0.99342746     1.57950
O308        O  0.62549432  0.53605643  0.04037349    -0.80060
O309        O  0.60137554  0.50014095  0.94407258    -0.74300
O310        O  0.49457337  0.54170372  0.89994860    -0.80140
O311        O  0.44999245  0.41250788  0.99900680    -0.81850
O312        O  0.59056085  0.43132637  0.07026221    -0.80170
C313        C  0.57819337  0.50262739  0.92616676     0.88000
O314        O  0.59152137  0.47656860  0.01187317    -0.87310
O315        O  0.56681996  0.53985905  0.99715685    -0.87420
O316        O  0.55440264  0.52985729  0.04562599    -0.74470
Mg317      Mg  0.51323726  0.49516136  0.91594003     1.57970
O318        O  0.52838933  0.57908693  0.90920611    -0.81850
H319        H  0.53812107  0.40564641  0.94856620    -0.05570
O320        O  0.52949722  0.46170021  0.03765879    -0.87120
H321        H  0.50225469  0.48252352  0.06877710    -0.05400
H322        H  0.62429350  0.45114256  0.99146717    -0.05570
C323        C  0.50436063  0.47288490  0.04571666     0.87980
C324        C  0.52838922  0.42860184  0.94993052     0.88560
C325        C  0.60098394  0.45218526  0.00049077     0.88610
H326        H  0.54521817  0.57063374  0.02413863    -0.05550
O327        O  0.49923349  0.54782994  0.97104339    -0.74580
Mg328      Mg  0.57190612  0.48037308  0.05680136     1.58000
H329        H  0.45857221  0.52586408  0.97981180    -0.05570
C330        C  0.46050703  0.39692320  0.02180840     0.93600
O331        O  0.55469857  0.39682184  0.05688917    -0.81810
C332        C  0.57978771  0.40381464  0.07035628     0.93660
O333        O  0.47201484  0.47406938  0.89387908    -0.81790
Mg334      Mg  0.54903969  0.55901957  0.95442324     1.58180
O335        O  0.48786147  0.40075649  0.03195304    -0.80130
O336        O  0.63230635  0.55923946  0.97320600    -0.81820
C337        C  0.43340048  0.39280229  0.72721947     0.04070
C338        C  0.44075285  0.40431503  0.75681683    -0.12080
C339        C  0.42669211  0.39200458  0.78347451     0.01570
C340        C  0.40516458  0.36817727  0.78014295    -0.10610
C341        C  0.39660580  0.35759109  0.75073169     0.04060
C342        C  0.41081678  0.36967560  0.72418683    -0.10030
H343        H  0.45738462  0.42292421  0.75904698     0.09650
H344        H  0.39441785  0.35822550  0.80050740     0.07180
H345        H  0.40420583  0.36134126  0.70141613     0.07030
C346        C  0.63452325  0.23172357  0.08888099     0.04070
C347        C  0.65862851  0.22798607  0.11066038    -0.12080
C348        C  0.67167643  0.25396118  0.12530499     0.01570
C349        C  0.66102809  0.28348071  0.11799789    -0.10610
C350        C  0.63695796  0.28746450  0.09685873     0.04060
C351        C  0.62380939  0.26165543  0.08218388    -0.10030
H352        H  0.66647842  0.20506285  0.11688863     0.09650
H353        H  0.67041392  0.30337024  0.13010559     0.07180
H354        H  0.60456962  0.26480482  0.06633253     0.07030
C355        C  0.79808327  0.59079196  0.89441195     0.04070
C356        C  0.80236172  0.61165206  0.86956035    -0.12080
C357        C  0.77690908  0.62815729  0.85735764     0.01570
C358        C  0.74750997  0.62377034  0.87016091    -0.10610
C359        C  0.74307364  0.60333465  0.89466230     0.04060
C360        C  0.76829649  0.58719481  0.90698397    -0.10030
H361        H  0.82513108  0.61477921  0.85964002     0.09650
H362        H  0.72786716  0.63640754  0.86098741     0.07180
H363        H  0.76463167  0.57144293  0.92614557     0.07030
O364        O  0.97206402  0.50789877  0.09222777    -0.87410
C365        C  0.96472455  0.54217789  0.00451743     0.88620
Mg366      Mg  0.01315567  0.49006513  0.11094913     1.58150
O367        O  0.93156452  0.47004181  0.01631004    -0.87140
O368        O  0.92463561  0.49242930  0.08411696    -0.74470
C369        C  0.06710538  0.39690921  0.00126343     0.93670
O370        O  0.02335856  0.54367032  0.05346285    -0.74280
O371        O  0.07669823  0.41187673  0.02486442    -0.81790
Mg372      Mg  0.97407326  0.55279976  0.07194618     1.57960
C373        C  0.94425171  0.39801739  0.96078875     0.93590
O374        O  0.92543514  0.56255964  0.09307843    -0.80050
H375        H  0.90148820  0.44243671  0.03807860    -0.05390
C376        C  0.01819813  0.47093015  0.98082358     0.88530
O377        O  0.99721843  0.44057306  0.09959293    -0.74560
O378        O  0.95486147  0.53308522  0.02993713    -0.87320
O379        O  0.93056045  0.42407090  0.96243996    -0.80130
C380        C  0.89014366  0.51818697  0.96095080     0.93710
C381        C  0.89736693  0.56116424  0.08389490     0.93560
Mg382      Mg  0.99209457  0.41416693  0.00952889     1.57950
O383        O  0.03948691  0.39970223  0.99140433    -0.80060
O384        O  0.94275438  0.42225135  0.02825474    -0.74300
O385        O  0.89360085  0.52750010  0.98876088    -0.80140
O386        O  0.99700499  0.57531493  0.11473257    -0.81850
O387        O  0.06918688  0.43548743  0.09613703    -0.80170
C388        C  0.92417605  0.44497331  0.02780258     0.88000
O389        O  0.01068322  0.43210882  0.05147949    -0.87310
O390        O  0.99382469  0.45877160  0.98970270    -0.87420
O391        O  0.04218428  0.47220998  0.99808244    -0.74470
Mg392      Mg  0.91166580  0.50976745  0.03557709     1.57970
O393        O  0.90438332  0.49445742  0.95079746    -0.81850
H394        H  0.94767645  0.48561997  0.12457703    -0.05570
O395        O  0.03462803  0.49582703  0.06668518    -0.87120
H396        H  0.06485495  0.52334364  0.04501885    -0.05400
H397        H  0.99013529  0.39980756  0.07735457    -0.05570
C398        C  0.04203692  0.52092766  0.05498677     0.87980
C399        C  0.94818976  0.49528992  0.10145705     0.88560
C400        C  0.99926903  0.42303498  0.07606865     0.88610
H401        H  0.01905177  0.48106089  0.95789142    -0.05550
O402        O  0.96551091  0.52466886  0.98068432    -0.74580
Mg403      Mg  0.05458881  0.45445080  0.04737871     1.58000
H404        H  0.97334929  0.56556603  0.00260892    -0.05570
C405        C  0.02016870  0.56540422  0.13014083     0.93600
O406        O  0.05607102  0.47050239  0.13163760    -0.81810
C407        C  0.06960688  0.44571482  0.12396285     0.93660
O408        O  0.88989512  0.55062945  0.05751023    -0.81790
Mg409      Mg  0.94961922  0.47439739  0.97109959     1.58180
O410        O  0.02868965  0.53735682  0.12814660    -0.80130
O411        O  0.97319318  0.39682552  0.96444899    -0.81820
C412        C  0.72838792  0.58649266  0.13873793     0.04070
C413        C  0.72398618  0.61006210  0.16075148    -0.12080
C414        C  0.74948317  0.62231884  0.17686192     0.01570
C415        C  0.77925754  0.61127095  0.17102138    -0.10610
C416        C  0.78432915  0.58978727  0.14745766     0.04060
C417        C  0.75869749  0.57678839  0.13217678    -0.10030
H418        H  0.70109580  0.61937357  0.16475458     0.09650
H419        H  0.79873680  0.62105419  0.18350245     0.07180
H420        H  0.76239498  0.55972841  0.11418687     0.07030
C421        C  0.08852345  0.38754526  0.29552078     0.04070
C422        C  0.10951645  0.36275687  0.29875028    -0.12080
C423        C  0.12539370  0.35131734  0.27275601     0.01570
C424        C  0.11909336  0.36327185  0.24336565    -0.10610
C425        C  0.09828430  0.38751969  0.23972056     0.04060
C426        C  0.08340364  0.39996453  0.26573992    -0.10030
H427        H  0.11446414  0.35324998  0.32144358     0.09650
H428        H  0.13162028  0.35466678  0.22338948     0.07180
H429        H  0.06821499  0.41964625  0.26280456     0.07030
C430        C  0.88377198  0.22425664  0.94191261     0.04070
C431        C  0.87044124  0.22307715  0.91223355    -0.12080
C432        C  0.85849020  0.25001978  0.89851928     0.01570
C433        C  0.86381388  0.27844279  0.91362813    -0.10610
C434        C  0.87961745  0.28034358  0.94215102     0.04060
C435        C  0.88567419  0.25250580  0.95770226    -0.10030
H436        H  0.87050318  0.20148993  0.89955724     0.09650
H437        H  0.85695786  0.29935137  0.90204480     0.07180
H438        H  0.89526893  0.25274709  0.98088774     0.07030
O439        O  0.54297633  0.05841994  0.98014383    -0.87410
C440        C  0.46604457  0.10971568  0.98980957     0.88620
Mg441      Mg  0.54711759  0.02655722  0.94273114     1.58150
O442        O  0.47099930  0.04804403  0.04268760    -0.87140
O443        O  0.54284344  0.05764550  0.03114890    -0.74470
C444        C  0.41054964  0.95761919  0.93417412     0.93670
O445        O  0.49736444  0.08588386  0.92847572    -0.74280
O446        O  0.43435662  0.96014933  0.91705416    -0.81790
Mg447      Mg  0.52833049  0.10411093  0.96739415     1.57960
C448        C  0.39438242  0.99206747  0.05778735     0.93590
O449        O  0.56030484  0.12664034  0.00478958    -0.80050
H450        H  0.49447623  0.02449935  0.07499365    -0.05390
C451        C  0.41855458  0.03548632  0.96661662     0.88530
O452        O  0.53247257  0.98615042  0.97397294    -0.74560
O453        O  0.49083762  0.09828377  0.99840617    -0.87320
O454        O  0.40314706  0.02011615  0.06107994    -0.80130
C455        C  0.43311693  0.11922259  0.06745500     0.93710
C456        C  0.55717653  0.13626103  0.03263780     0.93560
Mg457      Mg  0.44330580  0.98100796  0.00164920     1.57950
O458        O  0.41091807  0.96480366  0.96280456    -0.80060
O459        O  0.47376674  0.99724346  0.04263975    -0.74300
O460        O  0.46146276  0.11958507  0.05947887    -0.80140
O461        O  0.56521909  0.11086069  0.93014202    -0.81850
O462        O  0.50847323  0.96677080  0.90099135    -0.80170
C463        C  0.48005141  0.02351945  0.05447405     0.88000
O464        O  0.48170439  0.98422947  0.97054310    -0.87310
O465        O  0.43051708  0.02724655  0.99132022    -0.87420
O466        O  0.43009068  0.02825840  0.94056224    -0.74470
Mg467      Mg  0.50114337  0.08751623  0.04517039     1.57970
O468        O  0.41731350  0.09440137  0.06651352    -0.81850
H469        H  0.57590860  0.03717319  0.00485472    -0.05570
O470        O  0.50051217  0.03544979  0.92958968    -0.87120
H471        H  0.47624594  0.05789219  0.89719833    -0.05400
H472        H  0.50622913  0.95308834  0.99442613    -0.05570
C473        C  0.49110369  0.05946971  0.91736478     0.87980
C474        C  0.55498884  0.05084700  0.00514986     0.88560
C475        C  0.50659767  0.97339156  0.97984307     0.88610
H476        H  0.39816076  0.04992174  0.96721503    -0.05550
O477        O  0.44013897  0.09811290  0.99738876    -0.74580
Mg478      Mg  0.47022299  0.99770064  0.92378695     1.58000
H479        H  0.46643066  0.12975021  0.97484483    -0.05570
C480        C  0.56890744  0.09260511  0.90726712     0.93600
O481        O  0.55292375  0.99270032  0.90435970    -0.81810
C482        C  0.53673686  0.97088613  0.89327402     0.93660
O483        O  0.53406482  0.12804984  0.04889351    -0.81790
Mg484      Mg  0.42432151  0.05821695  0.02892182     1.58180
O485        O  0.56243392  0.06404213  0.90894792    -0.80130
O486        O  0.40368230  0.97581237  0.03511045    -0.81820
C487        C  0.59180369  0.13227855  0.72662169     0.04070
C488        C  0.61330875  0.15664939  0.72375922    -0.12080
C489        C  0.62788839  0.16895805  0.75040030     0.01570
C490        C  0.62074558  0.15681079  0.77956984    -0.10610
C491        C  0.59992205  0.13235490  0.78277380     0.04060
C492        C  0.58564476  0.12002266  0.75616221    -0.10030
H493        H  0.61863047  0.16592300  0.70107686     0.09650
H494        H  0.63167383  0.16646913  0.80006484     0.07180
H495        H  0.56948519  0.10102638  0.75844265     0.07030
C496        C  0.39189534  0.29702385  0.08332467     0.04070
C497        C  0.37462825  0.30034406  0.11123772    -0.12080
C498        C  0.35870608  0.27478505  0.12424991     0.01570
C499        C  0.36089359  0.24601011  0.10956876    -0.10610
C500        C  0.38088352  0.24151894  0.08493406     0.04060
C501        C  0.39403605  0.26712642  0.07023877    -0.10030
H502        H  0.37432162  0.32224970  0.12331063     0.09650
H503        H  0.34948737  0.22601262  0.11942566     0.07180
H504        H  0.40730760  0.26315358  0.04939804     0.07030
C505        C  0.23120154  0.93507232  0.89926161     0.04070
C506        C  0.22824149  0.91172711  0.87645115    -0.12080
C507        C  0.25416051  0.90175749  0.85899171     0.01570
C508        C  0.28195153  0.91814507  0.86330925    -0.10610
C509        C  0.28644561  0.93610609  0.88975106     0.04060
C510        C  0.26108374  0.94471332  0.90766826    -0.10030
H511        H  0.20592333  0.90136514  0.87297060     0.09650
H512        H  0.30145024  0.91450220  0.84809603     0.07180
H513        H  0.26455475  0.95939141  0.92775120     0.07030
O514        O  0.58929638  0.55346015  0.51816646    -0.87410
C515        C  0.50358299  0.55614842  0.48163552     0.88620
Mg516      Mg  0.60753002  0.51272519  0.53731919     1.58150
O517        O  0.51170615  0.59156277  0.55411496    -0.87140
O518        O  0.57992201  0.60067356  0.53303592    -0.74470
C519        C  0.49855913  0.45842202  0.63035922     0.93670
O520        O  0.55350560  0.50052207  0.48226879    -0.74280
O521        O  0.52129963  0.44817710  0.61468018    -0.81790
Mg522      Mg  0.57119993  0.55015903  0.47244882     1.57960
C523        C  0.45239485  0.57984506  0.62477529     0.93590
O524        O  0.59004256  0.59982607  0.46095554    -0.80050
H525        H  0.53239344  0.62340455  0.58060237    -0.05390
C526        C  0.47766832  0.50461591  0.55618138     0.88530
O527        O  0.59623963  0.52948513  0.58640359    -0.74560
O528        O  0.52807479  0.56840174  0.49031380    -0.87320
O529        O  0.45287249  0.58983485  0.59691721    -0.80130
C530        C  0.45655155  0.63024299  0.50358004     0.93710
C531        C  0.57928761  0.62735466  0.46166761     0.93560
Mg532      Mg  0.50763962  0.53361148  0.61255100     1.57950
O533        O  0.49038117  0.48660752  0.62883484    -0.80060
O534        O  0.52494760  0.58253542  0.60227226    -0.74300
O535        O  0.48504530  0.62896394  0.49642294    -0.80140
O536        O  0.61637642  0.52824340  0.45308021    -0.81850
O537        O  0.59260895  0.45560048  0.59214273    -0.80170
C538        C  0.52298647  0.60030929  0.57898178     0.88000
O539        O  0.54860472  0.51447849  0.59436275    -0.87310
O540        O  0.48620344  0.52931005  0.56791185    -0.87420
O541        O  0.49547532  0.48129526  0.55447785    -0.74470
Mg542      Mg  0.53153735  0.61167286  0.51451533     1.57970
O543        O  0.44572548  0.61370042  0.52543769    -0.81850
H544        H  0.62076004  0.57889683  0.54071535    -0.05570
O545        O  0.56382768  0.49066913  0.53132444    -0.87120
H546        H  0.54385350  0.45960918  0.50325810    -0.05400
H547        H  0.57385563  0.53517450  0.62729536    -0.05570
C548        C  0.55352896  0.48253991  0.50570398     0.87980
C549        C  0.59783053  0.57765050  0.53067418     0.88560
C550        C  0.57288181  0.52629715  0.60385781     0.88610
H551        H  0.45465732  0.50307666  0.54635546    -0.05550
O552        O  0.48004264  0.55390237  0.49926511    -0.74580
Mg553      Mg  0.54444700  0.47023953  0.57251020     1.58000
H554        H  0.50239344  0.54637330  0.45856522    -0.05570
C555        C  0.63000762  0.50434551  0.46383438     0.93600
O556        O  0.62817546  0.47118303  0.55837332    -0.81810
C557        C  0.62040049  0.45610596  0.58223297     0.93660
O558        O  0.55357394  0.63396986  0.47399728    -0.81790
Mg559      Mg  0.46727284  0.57093959  0.54847207     1.58180
O560        O  0.62417755  0.49454483  0.49093226    -0.80130
O561        O  0.46527150  0.55473563  0.63267939    -0.81820
C562        C  0.63220770  0.80034773  0.43706556     0.04070
C563        C  0.65522622  0.80390956  0.41441161    -0.12080
C564        C  0.66590122  0.77810642  0.39778531     0.01570
C565        C  0.65373726  0.74881799  0.40437156    -0.10610
C566        C  0.63115027  0.74487677  0.42710249     0.04060
C567        C  0.62012779  0.77087781  0.44313893    -0.10030
H568        H  0.66459817  0.82661759  0.40968410     0.09650
H569        H  0.66219828  0.72882264  0.39186683     0.07180
H570        H  0.60217036  0.76819425  0.46041573     0.07030
C571        C  0.43954063  0.63525862  0.79574909     0.04070
C572        C  0.41527908  0.65631855  0.80172273    -0.12080
C573        C  0.39804146  0.66892971  0.77697707     0.01570
C574        C  0.40403142  0.65932608  0.74663775    -0.10610
C575        C  0.42777684  0.63874751  0.74042131     0.04060
C576        C  0.44631073  0.62774451  0.76465784    -0.10030
H577        H  0.40938010  0.66235919  0.82534339     0.09650
H578        H  0.38961755  0.66746070  0.72770225     0.07180
H579        H  0.46495071  0.61190032  0.75935894     0.07030
C580        C  0.79191943  0.43761702  0.62686904     0.04070
C581        C  0.79912193  0.41040108  0.64359714    -0.12080
C582        C  0.77553658  0.39323436  0.65791940     0.01570
C583        C  0.74467040  0.40143214  0.65353219    -0.10610
C584        C  0.73707106  0.42741178  0.63635134     0.04060
C585        C  0.76056848  0.44658868  0.62495381    -0.10030
H586        H  0.82273966  0.40231527  0.64532117     0.09650
H587        H  0.72642329  0.38690682  0.66272723     0.07180
H588        H  0.75405223  0.46751055  0.61290449     0.07030
O589        O  0.47201994  0.01079514  0.59328651    -0.87410
C590        C  0.47086459  0.04272757  0.50435988     0.88620
Mg591      Mg  0.51110454  0.99009081  0.61331158     1.58150
O592        O  0.43474483  0.97101468  0.51389246    -0.87140
O593        O  0.42512453  0.99503705  0.58251076    -0.74470
C594        C  0.56697687  0.89490814  0.50554783     0.93670
O595        O  0.52741150  0.04183959  0.55576708    -0.74280
O596        O  0.57631563  0.90926774  0.52957509    -0.81790
Mg597      Mg  0.47813287  0.05450205  0.57135477     1.57960
C598        C  0.44846484  0.89883313  0.45475549     0.93590
O599        O  0.42938155  0.07022515  0.58805160    -0.80050
H600        H  0.40100523  0.94531228  0.53228485    -0.05390
C601        C  0.52259294  0.96879377  0.48283263     0.88530
O602        O  0.49199682  0.94228299  0.60030348    -0.74560
O603        O  0.45941644  0.03432485  0.52929384    -0.87320
O604        O  0.43764968  0.92632592  0.45498228    -0.80130
C605        C  0.39703362  0.02010649  0.45758514     0.93710
C606        C  0.40162817  0.06898771  0.57778873     0.93560
Mg607      Mg  0.49169334  0.91293984  0.51163686     1.57950
O608        O  0.53912262  0.89706315  0.49643654    -0.80060
O609        O  0.44174007  0.92275888  0.52647494    -0.74300
O610        O  0.39903796  0.02836860  0.48585300    -0.80140
O611        O  0.50109071  0.07626405  0.61480445    -0.81850
O612        O  0.56254097  0.93067574  0.60056567    -0.80170
C613        C  0.42467372  0.94644351  0.52424732     0.88000
O614        O  0.50828744  0.93243010  0.55318601    -0.87310
O615        O  0.49738578  0.95689215  0.48965443    -0.87420
O616        O  0.54510832  0.97017649  0.50200335    -0.74470
Mg617      Mg  0.41544949  0.01148437  0.53313324     1.57970
O618        O  0.41257293  0.99738995  0.44708203    -0.81850
H619        H  0.44512370  0.99037130  0.62481441    -0.05570
O620        O  0.53478593  0.99373508  0.57012761    -0.87120
H621        H  0.56795266  0.01891186  0.55002906    -0.05400
H622        H  0.48308669  0.90228144  0.57736404    -0.05570
C623        C  0.54449347  0.01809120  0.55867120     0.87980
C624        C  0.44731751  0.99897160  0.60138585     0.88560
C625        C  0.49435623  0.92457654  0.57690276     0.88610
H626        H  0.52535504  0.97892967  0.46007468    -0.05550
O627        O  0.47250420  0.02484409  0.48092038    -0.74580
Mg628      Mg  0.55363199  0.95172895  0.55171756     1.58000
H629        H  0.48034803  0.06578698  0.50263253    -0.05570
C630        C  0.52300248  0.06534860  0.63148103     0.93600
O631        O  0.55106581  0.96648077  0.63590054    -0.81810
C632        C  0.56167074  0.94018218  0.62855724     0.93660
O633        O  0.39408835  0.05285439  0.55437650    -0.81790
Mg634      Mg  0.45576041  0.97539897  0.46930297     1.58180
O635        O  0.52983848  0.03670803  0.63074693    -0.80130
O636        O  0.47344850  0.89186682  0.46845110    -0.81820
C637        C  0.38928350  0.72755634  0.43924269     0.04070
C638        C  0.36481225  0.72396336  0.41790670    -0.12080
C639        C  0.35297328  0.74983061  0.40205675     0.01570
C640        C  0.36571393  0.77901455  0.40766906    -0.10610
C641        C  0.38993580  0.78279119  0.42872521     0.04060
C642        C  0.40171370  0.75707417  0.44457316    -0.10030
H643        H  0.35551195  0.70119442  0.41323374     0.09650
H644        H  0.35726457  0.79887762  0.39490686     0.07180
H645        H  0.42091358  0.75992640  0.46053696     0.07030
C646        C  0.23085058  0.09043050  0.63500839     0.04070
C647        C  0.26069871  0.08525752  0.62301154    -0.12080
C648        C  0.28635904  0.10132781  0.63482211     0.01570
C649        C  0.28210132  0.12230000  0.65898939    -0.10610
C650        C  0.25265749  0.12738663  0.67132499     0.04060
C651        C  0.22693608  0.11157763  0.65934295    -0.10030
H652        H  0.26383844  0.06917293  0.60400551     0.09650
H653        H  0.30169709  0.13528792  0.66781393     0.07180
H654        H  0.20402422  0.11643691  0.66820476     0.07030
C655        C  0.59252059  0.89489906  0.79782344     0.04070
C656        C  0.61798177  0.87449791  0.79966169    -0.12080
C657        C  0.62478068  0.85421274  0.77463481     0.01570
C658        C  0.60495865  0.85526050  0.74863164    -0.10610
C659        C  0.58508532  0.88008496  0.74430807     0.04060
C660        C  0.57715765  0.89845128  0.76947106    -0.10030
H661        H  0.63246372  0.87553539  0.82004489     0.09650
H662        H  0.60734497  0.83905845  0.72971616     0.07180
H663        H  0.56024547  0.91668125  0.76644154     0.07030
C664        C  0.26475694  0.22751159  0.75698530     0.04070
C665        C  0.24635645  0.23399424  0.78273727    -0.12080
C666        C  0.25146470  0.26082865  0.80026515     0.01570
C667        C  0.27623642  0.28030973  0.79263817    -0.10610
C668        C  0.29533395  0.27341877  0.76724762     0.04060
C669        C  0.28922552  0.24717443  0.74929203    -0.10030
H670        H  0.22734247  0.21871763  0.78845731     0.09650
H671        H  0.28035999  0.30105648  0.80609791     0.07180
H672        H  0.30327806  0.24221973  0.72911057     0.07030
C673        C  0.24941069  0.15149860  0.69524630    -0.04400
C674        C  0.24046863  0.18152224  0.68637162    -0.01520
C675        C  0.24435570  0.20626061  0.70716155     0.03470
C676        C  0.25737049  0.20099554  0.73673768    -0.04400
C677        C  0.26455069  0.17069499  0.74628242    -0.01510
C678        C  0.26044444  0.14591254  0.72553933     0.03470
C679        C  0.22888187  0.18716494  0.65527265     0.38120
C680        C  0.27761112  0.16526737  0.77681482     0.38110
C681        C  0.26845856  0.11476030  0.73491140     0.36530
C682        C  0.23574646  0.23730243  0.69790244     0.36530
N683        N  0.27472886  0.08987439  0.74236719    -0.38290
N684        N  0.22897419  0.26211285  0.69063321    -0.38290
N685        N  0.28809373  0.16096885  0.80115219    -0.37730
N686        N  0.21968890  0.19157738  0.63043977    -0.37740
C687        C  0.57121841  0.91987070  0.65422950    -0.04400
C688        C  0.55056017  0.89695384  0.66514979    -0.01520
C689        C  0.55526395  0.88331180  0.69444809     0.03470
C690        C  0.58069314  0.89230491  0.71263556    -0.04400
C691        C  0.60240514  0.91376883  0.70089713    -0.01510
C692        C  0.59759228  0.92756607  0.67178412     0.03470
C693        C  0.52352206  0.88834641  0.64721725     0.38120
C694        C  0.62938185  0.92222705  0.71915749     0.38110
C695        C  0.61930890  0.95032083  0.66016517     0.36530
C696        C  0.53334317  0.86101007  0.70650045     0.36530
N697        N  0.63662919  0.96842908  0.65083578    -0.38290
N698        N  0.51581676  0.84330357  0.71620644    -0.38290
N699        N  0.65098401  0.92876736  0.73365443    -0.37730
N700        N  0.50169415  0.88064433  0.63370029    -0.37740
C701        C  0.37595367  0.08446945  0.59430696    -0.04400
C702        C  0.35246025  0.09896764  0.57681014    -0.01520
C703        C  0.32354011  0.10521074  0.59025057     0.03470
C704        C  0.31772332  0.09699660  0.62136665    -0.04400
C705        C  0.34210886  0.08498732  0.63968054    -0.01510
C706        C  0.37123705  0.07894878  0.62624155     0.03470
C707        C  0.35781354  0.10703940  0.54458351     0.38120
C708        C  0.33683457  0.07732005  0.67197819     0.38110
C709        C  0.39558034  0.06518880  0.64487572     0.36530
C710        C  0.30010549  0.12038750  0.57171866     0.36530
N711        N  0.41502901  0.05431423  0.65977209    -0.38290
N712        N  0.28251152  0.13280887  0.55583672    -0.38290
N713        N  0.33272233  0.07122578  0.69775981    -0.37730
N714        N  0.36171113  0.11357194  0.51888571    -0.37740
C715        C  0.43063309  0.87276915  0.44141652    -0.04400
C716        C  0.40048703  0.86670525  0.45248600    -0.01520
C717        C  0.38726896  0.83719490  0.44847554     0.03470
C718        C  0.40375128  0.81386681  0.43274060    -0.04400
C719        C  0.43276040  0.82062736  0.41952830    -0.01510
C720        C  0.44619007  0.84996603  0.42387965     0.03470
C721        C  0.38375474  0.89006189  0.46978105     0.38120
C722        C  0.44892524  0.79723159  0.40173038     0.38110
C723        C  0.47627882  0.85655396  0.41061550     0.36530
C724        C  0.35742307  0.83029210  0.46211101     0.36530
N725        N  0.50023892  0.86160816  0.39985991    -0.38290
N726        N  0.33373633  0.82483033  0.47326096    -0.38290
N727        N  0.46177280  0.77853414  0.38755976    -0.37730
N728        N  0.37019973  0.90861680  0.48346561    -0.37740
C729        C  0.61933773  0.82755915  0.45366063    -0.04400
C730        C  0.62685328  0.83307261  0.48507290    -0.01520
C731        C  0.61072004  0.85578733  0.50218988     0.03470
C732        C  0.58805262  0.87431373  0.48743497    -0.04400
C733        C  0.58343854  0.87103404  0.45499398    -0.01510
C734        C  0.59784784  0.84688380  0.43861115     0.03470
C735        C  0.65118903  0.81530219  0.49980554     0.38120
C736        C  0.56416004  0.89279853  0.43814654     0.38110
C737        C  0.58895395  0.84077828  0.40673173     0.36530
C738        C  0.61661946  0.85890883  0.53516646     0.36530
N739        N  0.58115415  0.83580556  0.38153107    -0.38290
N740        N  0.62134957  0.86128675  0.56149342    -0.38290
N741        N  0.54901887  0.91034252  0.42473780    -0.37730
N742        N  0.67092689  0.80159210  0.51160974    -0.37740
C743        C  0.43939310  0.59876315  0.65009286    -0.04400
C744        C  0.41928993  0.58492138  0.67175324    -0.01520
C745        C  0.41446140  0.59887054  0.70080249     0.03470
C746        C  0.43066566  0.62602456  0.70875994    -0.04400
C747        C  0.44857697  0.64132278  0.68628807    -0.01510
C748        C  0.45258885  0.62793956  0.65675132     0.03470
C749        C  0.40405744  0.55596826  0.66437076     0.38120
C750        C  0.46347402  0.67038839  0.69389980     0.38110
C751        C  0.47173408  0.64342779  0.63400032     0.36530
C752        C  0.39279635  0.58533499  0.72254098     0.36530
N753        N  0.48682900  0.65613069  0.61593233    -0.38290
N754        N  0.37523091  0.57477518  0.73973675    -0.38290
N755        N  0.47534510  0.69357527  0.70000260    -0.37730
N756        N  0.39182671  0.53287841  0.65864070    -0.37740
C757        C  0.40370313  0.70030389  0.45461133    -0.04400
C758        C  0.39559647  0.69219326  0.48520466    -0.01520
C759        C  0.41186965  0.66857307  0.50102793     0.03470
C760        C  0.43627325  0.65246679  0.48611277    -0.04400
C761        C  0.44287414  0.65952973  0.45462073    -0.01510
C762        C  0.42721495  0.68375198  0.43934528     0.03470
C763        C  0.37096960  0.70885908  0.50068043     0.38120
C764        C  0.46567605  0.64180260  0.43750420     0.38110
C765        C  0.43638537  0.69262711  0.40825892     0.36530
C766        C  0.40423986  0.66208157  0.53309961     0.36530
N767        N  0.44412647  0.69981293  0.38363772    -0.38290
N768        N  0.39808129  0.65696459  0.55868963    -0.38290
N769        N  0.48383801  0.62771773  0.42381241    -0.37730
N770        N  0.35129832  0.72218956  0.51294972    -0.37740
C771        C  0.59783036  0.65388318  0.45106712    -0.04400
C772        C  0.61172370  0.67298186  0.47373019    -0.01520
C773        C  0.62328338  0.70221286  0.46564968     0.03470
C774        C  0.62017265  0.71318932  0.43497563    -0.04400
C775        C  0.60720774  0.69355946  0.41198603    -0.01510
C776        C  0.59634133  0.66384688  0.42004428     0.03470
C777        C  0.61315928  0.66323461  0.50591073     0.38120
C778        C  0.60367746  0.70435197  0.38034733     0.38110
C779        C  0.58249827  0.64397163  0.39675009     0.36530
C780        C  0.63844363  0.72085611  0.48919262     0.36530
N781        N  0.57155932  0.62801770  0.37817180    -0.38290
N782        N  0.65038629  0.73534370  0.50833488    -0.38290
N783        N  0.60094805  0.71292552  0.35507720    -0.37730
N784        N  0.61460829  0.65640888  0.53180715    -0.37740
C785        C  0.70500571  0.43068091  0.62486573    -0.04400
C786        C  0.68185145  0.44450483  0.64313230    -0.01520
C787        C  0.65212123  0.44952325  0.63045495     0.03470
C788        C  0.64586138  0.44099544  0.59938178    -0.04400
C789        C  0.66818357  0.42419669  0.58246724    -0.01510
C790        C  0.69753079  0.41873951  0.59534635     0.03470
C791        C  0.68893485  0.45426935  0.67452790     0.38120
C792        C  0.66135836  0.41355681  0.55124215     0.38110
C793        C  0.72022671  0.40098582  0.57812802     0.36530
C794        C  0.62878276  0.46527135  0.64864590     0.36530
N795        N  0.73835682  0.38674526  0.56456501    -0.38290
N796        N  0.61010007  0.47772174  0.66319178    -0.38290
N797        N  0.65607785  0.40522367  0.52627376    -0.37730
N798        N  0.69459516  0.46193820  0.69962708    -0.37740
C799        C  0.57547404  0.11886956  0.69903345    -0.04400
C800        C  0.59028183  0.09673985  0.68022269    -0.01520
C801        C  0.57358208  0.08087255  0.65686922     0.03470
C802        C  0.54135263  0.08589319  0.65285828    -0.04400
C803        C  0.52689926  0.10919465  0.67079178    -0.01510
C804        C  0.54403668  0.12588275  0.69334012     0.03470
C805        C  0.62251446  0.08926344  0.68567462     0.38120
C806        C  0.49404506  0.11504813  0.66736079     0.38110
C807        C  0.52926738  0.15035389  0.71082307     0.36530
C808        C  0.58988435  0.05951102  0.63674474     0.36530
N809        N  0.51750921  0.17015194  0.72442269    -0.38290
N810        N  0.60290124  0.04256069  0.62064068    -0.38290
N811        N  0.46780872  0.11969852  0.66473717    -0.37730
N812        N  0.64814697  0.08283107  0.68989265    -0.37740
C813        C  0.31838129  0.94168210  0.90084777    -0.04400
C814        C  0.33228636  0.92033975  0.92138588    -0.01520
C815        C  0.36323070  0.92439535  0.93090130     0.03470
C816        C  0.38034036  0.94986306  0.92005910    -0.04400
C817        C  0.36645918  0.97102309  0.89920894    -0.01510
C818        C  0.33551767  0.96691207  0.88968428     0.03470
C819        C  0.31464969  0.89419507  0.93276381     0.38120
C820        C  0.38346880  0.99786040  0.88853447     0.38110
C821        C  0.32098070  0.98904053  0.86905088     0.36530
C822        C  0.37763789  0.90221656  0.95156201     0.36530
N823        N  0.30932490  0.00675651  0.85270335    -0.38290
N824        N  0.38921511  0.88444292  0.96790411    -0.38290
N825        N  0.39678678  0.01935414  0.87985770    -0.37730
N826        N  0.30055988  0.87328313  0.94164357    -0.37740
C827        C  0.55159298  0.95090066  0.86955025    -0.04400
C828        C  0.56682409  0.96489461  0.84415731    -0.01520
C829        C  0.58232254  0.94665605  0.82206700     0.03470
C830        C  0.58210684  0.91411872  0.82452768    -0.04400
C831        C  0.56737962  0.90011330  0.85018199    -0.01510
C832        C  0.55227136  0.91845671  0.87268959     0.03470
C833        C  0.56542408  0.99816070  0.83987843     0.38120
C834        C  0.56675222  0.86674047  0.85281006     0.38110
C835        C  0.53781075  0.90397495  0.89926187     0.36530
C836        C  0.59814723  0.96152104  0.79645227     0.36530
N837        N  0.52631769  0.89243185  0.92050737    -0.38290
N838        N  0.61056162  0.97363724  0.77607417    -0.38290
N839        N  0.56624400  0.84010624  0.85487285    -0.37730
N840        N  0.56420410  0.02463634  0.83643325    -0.37740
C841        C  0.57778460  0.10487457  0.87655180    -0.04400
C842        C  0.55435510  0.11533573  0.85620904    -0.01520
C843        C  0.56143413  0.12322513  0.82537155     0.03470
C844        C  0.59214597  0.12114659  0.81453966    -0.04400
C845        C  0.61568340  0.11076052  0.83501201    -0.01510
C846        C  0.60845057  0.10262147  0.86589502     0.03470
C847        C  0.52265362  0.11825416  0.86673002     0.38120
C848        C  0.64727517  0.10782578  0.82416999     0.38110
C849        C  0.63252841  0.09209587  0.88682372     0.36530
C850        C  0.53689933  0.13402254  0.80506616     0.36530
N851        N  0.65173574  0.08384018  0.90361517    -0.38290
N852        N  0.51697737  0.14230559  0.78916686    -0.38290
N853        N  0.67249977  0.10562745  0.81553863    -0.37730
N854        N  0.49708402  0.12130797  0.87394417    -0.37740
C855        C  0.39371551  0.20998509  0.08036105    -0.04400
C856        C  0.37596072  0.18649882  0.06639251    -0.01520
C857        C  0.38795146  0.15624382  0.06381566     0.03470
C858        C  0.41800162  0.14924680  0.07527627    -0.04400
C859        C  0.43498129  0.17261383  0.09078891    -0.01510
C860        C  0.42259553  0.20254308  0.09386807     0.03470
C861        C  0.34520748  0.19350580  0.05487630     0.38120
C862        C  0.46516234  0.16596092  0.10405428     0.38110
C863        C  0.43886540  0.22526600  0.11258420     0.36530
C864        C  0.36962967  0.13285090  0.04815555     0.36530
N865        N  0.45164146  0.24316800  0.12791631    -0.38290
N866        N  0.35490461  0.11424321  0.03570558    -0.38290
N867        N  0.48931606  0.16086299  0.11448885    -0.37730
N868        N  0.32058884  0.19908680  0.04590659    -0.37740
C869        C  0.92665462  0.36819775  0.95788224    -0.04400
C870        C  0.93980270  0.34036425  0.96927157    -0.01520
C871        C  0.92495960  0.31179930  0.96420673     0.03470
C872        C  0.89417562  0.31064298  0.95226321    -0.04400
C873        C  0.87924884  0.33922655  0.94605065    -0.01510
C874        C  0.89627527  0.36711729  0.94579864     0.03470
C875        C  0.96861743  0.34053893  0.98686574     0.38120
C876        C  0.84607749  0.34047419  0.94100815     0.38110
C877        C  0.88313845  0.39395860  0.93079695     0.36530
C878        C  0.94272924  0.28416229  0.97094418     0.36530
N879        N  0.87314089  0.41507514  0.91782670    -0.38290
N880        N  0.95770075  0.26290660  0.97720679    -0.38290
N881        N  0.81961234  0.34160033  0.93706071    -0.37730
N882        N  0.99141752  0.34041894  0.00101012    -0.37740
C883        C  0.81630327  0.58263555  0.13662145    -0.04400
C884        C  0.82501298  0.55160632  0.13175808    -0.01520
C885        C  0.85183407  0.54473558  0.11482496     0.03470
C886        C  0.87184024  0.56869654  0.10516355    -0.04400
C887        C  0.86527951  0.59943219  0.11321622    -0.01510
C888        C  0.83708339  0.60662347  0.12798878     0.03470
C889        C  0.80613416  0.52657197  0.14375444     0.38120
C890        C  0.88667251  0.62375852  0.10461482     0.38110
C891        C  0.82894831  0.63882298  0.13234021     0.36530
C892        C  0.85781472  0.51287859  0.10621153     0.36530
N893        N  0.82269835  0.66456732  0.13585466    -0.38290
N894        N  0.86148265  0.48731288  0.09932822    -0.38290
N895        N  0.90383809  0.64312395  0.09788948    -0.37730
N896        N  0.79111082  0.50656999  0.15319236    -0.37740
C897        C  0.09367323  0.40090642  0.20846542    -0.04400
C898        C  0.10844402  0.42877858  0.20040540    -0.01520
C899        C  0.10326500  0.44199584  0.17100783     0.03470
C900        C  0.08323648  0.42743631  0.14955268    -0.04400
C901        C  0.07047186  0.39826470  0.15679409    -0.01510
C902        C  0.07551908  0.38515495  0.18629624     0.03470
C903        C  0.12866994  0.44401731  0.22255337     0.38120
C904        C  0.05060137  0.38251062  0.13470896     0.38110
C905        C  0.06084895  0.35613683  0.19443559     0.36530
C906        C  0.11843299  0.47072610  0.16287992     0.36530
N907        N  0.04910740  0.33305642  0.20105876    -0.38290
N908        N  0.13088665  0.49350946  0.15656291    -0.38290
N909        N  0.03483921  0.36965136  0.11722228    -0.37730
N910        N  0.14477622  0.45613603  0.24026176    -0.37740
C911        C  0.82416431  0.57202329  0.90759954    -0.04400
C912        C  0.82207999  0.53937741  0.90814532    -0.01520
C913        C  0.84356738  0.52167334  0.92539062     0.03470
C914        C  0.86882280  0.53608725  0.94038515    -0.04400
C915        C  0.87205710  0.56851848  0.93813445    -0.01510
C916        C  0.84942938  0.58641362  0.92268347     0.03470
C917        C  0.79726466  0.52392551  0.89151163     0.38120
C918        C  0.89848478  0.58371714  0.95235259     0.38110
C919        C  0.85119112  0.61972561  0.92461800     0.36530
C920        C  0.83758887  0.48917378  0.93037881     0.36530
N921        N  0.85321023  0.64622058  0.92719377    -0.38290
N922        N  0.83179473  0.46350666  0.93489587    -0.38290
N923        N  0.91953408  0.59589746  0.96363037    -0.37730
N924        N  0.77747021  0.51164102  0.87823225    -0.37740
C925        C  0.61847593  0.20454953  0.07461641    -0.04400
C926        C  0.61799371  0.20068731  0.04208727    -0.01520
C927        C  0.59904824  0.17782829  0.02817526     0.03470
C928        C  0.58056548  0.15803117  0.04680484    -0.04400
C929        C  0.58363722  0.16016839  0.07961247    -0.01510
C930        C  0.60175917  0.18369275  0.09328528     0.03470
C931        C  0.63715038  0.22038707  0.02284291     0.38120
C932        C  0.56873308  0.13785635  0.09979421     0.38110
C933        C  0.60203677  0.18703387  0.12676018     0.36530
C934        C  0.59838299  0.17551422  0.99461372     0.36530
N935        N  0.60194997  0.18926287  0.15349140    -0.38290
N936        N  0.59810708  0.17370990  0.96783017    -0.38290
N937        N  0.55699770  0.12011443  0.11601648    -0.37730
N938        N  0.65251719  0.23604769  0.00754733    -0.37740
C939        C  0.37107133  0.33505323  0.74870109    -0.04400
C940        C  0.34037374  0.34583651  0.74668332    -0.01520
C941        C  0.31555432  0.32537508  0.75144732     0.03470
C942        C  0.32138076  0.29417583  0.75901914    -0.04400
C943        C  0.35217059  0.28311136  0.75957535    -0.01510
C944        C  0.37694726  0.30354165  0.75421159     0.03470
C945        C  0.33439013  0.37835667  0.74129486     0.38120
C946        C  0.35851690  0.25111598  0.76723879     0.38110
C947        C  0.40860412  0.29250252  0.75554930     0.36530
C948        C  0.28400471  0.33651611  0.74884116     0.36530
N949        N  0.43388431  0.28378611  0.75654951    -0.38290
N950        N  0.25882229  0.34534671  0.74683319    -0.38290
N951        N  0.36358000  0.22558966  0.77331803    -0.37730
N952        N  0.32957855  0.40431471  0.73720468    -0.37740
C953        C  0.44898372  0.40599293  0.69950481    -0.04400
C954        C  0.43303804  0.42665461  0.67996012    -0.01520
C955        C  0.44882347  0.44193372  0.65584876     0.03470
C956        C  0.48113311  0.43777992  0.65191189    -0.04400
C957        C  0.49664868  0.41562728  0.67042899    -0.01510
C958        C  0.48041555  0.39941058  0.69369366     0.03470
C959        C  0.40053673  0.43299153  0.68526280     0.38120
C960        C  0.52958715  0.41042636  0.66678214     0.38110
C961        C  0.49598150  0.37562261  0.71148906     0.36530
C962        C  0.43155651  0.46166038  0.63481881     0.36530
N963        N  0.50838350  0.35630098  0.72523222    -0.38290
N964        N  0.41785222  0.47726345  0.61789406    -0.38290
N965        N  0.55587244  0.40625695  0.66397257    -0.37730
N966        N  0.37462919  0.43817458  0.68942899    -0.37740
C967        C  0.65531018  0.54120660  0.08624516    -0.04400
C968        C  0.65307104  0.54374015  0.11891203    -0.01520
C969        C  0.67663180  0.55878555  0.13615441     0.03470
C970        C  0.70192501  0.57284826  0.12084641    -0.04400
C971        C  0.70314780  0.57187875  0.08810612    -0.01510
C972        C  0.68107498  0.55490213  0.07112720     0.03470
C973        C  0.62631172  0.53145501  0.13491844     0.38120
C974        C  0.72696387  0.58884198  0.07154580     0.38110
C975        C  0.68621287  0.55038637  0.03812631     0.36530
C976        C  0.67508889  0.55912954  0.16974843     0.36530
N977        N  0.69071234  0.54671170  0.01193449    -0.38290
N978        N  0.67383664  0.55946677  0.19655219    -0.38290
N979        N  0.74591111  0.60229862  0.05830083    -0.37730
N980        N  0.60492059  0.52178689  0.14774436    -0.37740
C981        C  0.65197540  0.58638045  0.93097227    -0.04400
C982        C  0.67226955  0.60687917  0.94647088    -0.01520
C983        C  0.70184338  0.61299096  0.93424385     0.03470
C984        C  0.71144645  0.59826250  0.90675434    -0.04400
C985        C  0.69080225  0.57875628  0.89058705    -0.01510
C986        C  0.66095651  0.57317894  0.90240927     0.03470
C987        C  0.66297774  0.62099456  0.97551445     0.38120
C988        C  0.70100017  0.56283099  0.86282364     0.38110
C989        C  0.64044240  0.55201954  0.88625953     0.36530
C990        C  0.72273825  0.63381158  0.95031799     0.36530
N991        N  0.62423692  0.53515498  0.87317384    -0.38290
N992        N  0.73946211  0.65040285  0.96309854    -0.38290
N993        N  0.70916020  0.54977204  0.84090615    -0.37730
N994        N  0.65556943  0.63217431  0.99871758    -0.37740
C995        C  0.44192609  0.37182669  0.03643130    -0.04400
C996        C  0.45524755  0.34230359  0.03976515    -0.01520
C997        C  0.44014634  0.31901242  0.05688167     0.03470
C998        C  0.40963409  0.32360809  0.06856382    -0.04400
C999        C  0.39615425  0.35338055  0.06440941    -0.01510
C1000       C  0.41256606  0.37740945  0.04923512     0.03470
C1001       C  0.48457090  0.33550906  0.02475685     0.38120
C1002       C  0.36517263  0.35997542  0.07491677     0.38110
C1003       C  0.39963476  0.40829153  0.04767863     0.36530
C1004       C  0.45728516  0.29084162  0.06286187     0.36530
N1005       N  0.38945145  0.43297762  0.04667330    -0.38290
N1006       N  0.47185898  0.26873562  0.06648039    -0.38290
N1007       N  0.34063309  0.36695529  0.08279552    -0.37730
N1008       N  0.50777809  0.33009120  0.01260271    -0.37740
C1009       C  0.59747037  0.37773789  0.08368072    -0.04400
C1010       C  0.58165067  0.35523507  0.10134075    -0.01520
C1011       C  0.59471741  0.32581664  0.10580313     0.03470
C1012       C  0.62369314  0.31870480  0.09269124    -0.04400
C1013       C  0.64055386  0.34178569  0.07700514    -0.01510
C1014       C  0.62752701  0.37131004  0.07256788     0.03470
C1015       C  0.55147883  0.36214123  0.11429669     0.38120
C1016       C  0.67069218  0.33463204  0.06414413     0.38110
C1017       C  0.64421560  0.39421227  0.05465547     0.36530
C1018       C  0.57824100  0.30270798  0.12369075     0.36530
N1019       N  0.65762271  0.41242206  0.04038095    -0.38290
N1020       N  0.56519493  0.28419150  0.13790537    -0.38290
N1021       N  0.69470034  0.32883078  0.05387840    -0.37730
N1022       N  0.52739798  0.36760360  0.12458104    -0.37740
C1023       C  0.48962607  0.58666828  0.86901944    -0.04400
C1024       C  0.48619668  0.61916992  0.87040003    -0.01520
C1025       C  0.47040868  0.63522433  0.84639958     0.03470
C1026       C  0.45635752  0.61885438  0.82155658    -0.04400
C1027       C  0.45914266  0.58626469  0.82082783    -0.01510
C1028       C  0.47698267  0.57064371  0.84320486     0.03470
C1029       C  0.49824651  0.63618975  0.89676503     0.38120
C1030       C  0.44292157  0.56810373  0.79757276     0.38110
C1031       C  0.48322920  0.53795844  0.83856214     0.36530
C1032       C  0.46924257  0.66867624  0.84709975     0.36530
N1033       N  0.48826862  0.51201509  0.83456149    -0.38290
N1034       N  0.46832083  0.69537616  0.84770797    -0.38290
N1035       N  0.43035212  0.55306830  0.77927111    -0.37730
N1036       N  0.50775623  0.64982243  0.91783349    -0.37740
C1037       C  0.45065669  0.42910722  0.87345953    -0.04400
C1038       C  0.47379855  0.41749712  0.85351313    -0.01520
C1039       C  0.46576237  0.40417147  0.82488674     0.03470
C1040       C  0.43462756  0.40382414  0.81500666    -0.04400
C1041       C  0.41130609  0.41486760  0.83532196    -0.01510
C1042       C  0.41935419  0.42698004  0.86471173     0.03470
C1043       C  0.50629731  0.42018966  0.86164680     0.38120
C1044       C  0.37917782  0.41521717  0.82553842     0.38110
C1045       C  0.39562766  0.43855485  0.88537154     0.36530
C1046       C  0.48981698  0.39068046  0.80577298     0.36530
N1047       N  0.37670361  0.44769875  0.90192838    -0.38290
N1048       N  0.50935649  0.38006002  0.79093043    -0.38290
N1049       N  0.35353458  0.41542275  0.81776640    -0.37730
N1050       N  0.53248082  0.42209849  0.86692864    -0.37740
C1051       C  0.32634467  0.07120768  0.40850775    -0.04400
C1052       C  0.34784254  0.08641482  0.42789334    -0.01520
C1053       C  0.37286723  0.07008920  0.44093156     0.03470
C1054       C  0.37509172  0.03766976  0.43737928    -0.04400
C1055       C  0.35375098  0.02236696  0.41768577    -0.01510
C1056       C  0.32979203  0.03920887  0.40291007     0.03470
C1057       C  0.34273378  0.11825101  0.43689951     0.38120
C1058       C  0.35541052  0.98915544  0.41373328     0.38110
C1059       C  0.30815783  0.02348103  0.38255045     0.36530
C1060       C  0.39662337  0.08687291  0.45784904     0.36530
N1061       N  0.29085195  0.01096494  0.36631841    -0.38290
N1062       N  0.41572983  0.10019828  0.47113219    -0.38290
N1063       N  0.35669927  0.96263991  0.41062401    -0.37730
N1064       N  0.33847564  0.14330892  0.44513830    -0.37740
C1065       C  0.95305253  0.92570022  0.37447487    -0.04400
C1066       C  0.96139435  0.89413961  0.37225190    -0.01520
C1067       C  0.95961075  0.87867618  0.34341712     0.03470
C1068       C  0.94883542  0.89441099  0.31681879    -0.04400
C1069       C  0.93772890  0.92504617  0.31985857    -0.01510
C1070       C  0.93988898  0.94054346  0.34841664     0.03470
C1071       C  0.97313677  0.87779673  0.39917215     0.38120
C1072       C  0.92375889  0.94092170  0.29364770     0.38110
C1073       C  0.92876390  0.97212115  0.35072114     0.36530
C1074       C  0.96993222  0.84691470  0.34093567     0.36530
N1075       N  0.91995207  0.99730403  0.35210829    -0.38290
N1076       N  0.97806432  0.82153395  0.33902728    -0.38290
N1077       N  0.91283308  0.95383623  0.27285078    -0.37730
N1078       N  0.98227419  0.86467467  0.42069522    -0.37740
C1079       C  0.10957214  0.87551250  0.57564257    -0.04400
C1080       C  0.09642395  0.85346372  0.59569826    -0.01520
C1081       C  0.10986090  0.82410272  0.59846925     0.03470
C1082       C  0.13558964  0.81603111  0.57995989    -0.04400
C1083       C  0.15042281  0.83883425  0.56213179    -0.01510
C1084       C  0.13763485  0.86875776  0.56026401     0.03470
C1085       C  0.06858610  0.86079720  0.61297695     0.38120
C1086       C  0.17840833  0.83129104  0.54533381     0.38110
C1087       C  0.15250787  0.89196422  0.54123432     0.36530
C1088       C  0.09792423  0.80261173  0.62133239     0.36530
N1089       N  0.16468110  0.91044240  0.52622438    -0.38290
N1090       N  0.08890771  0.78583755  0.64013075    -0.38290
N1091       N  0.20080313  0.82525976  0.53201092    -0.37730
N1092       N  0.04630739  0.86653840  0.62662890    -0.37740
C1093       C  0.20383128  0.07559113  0.61955878    -0.04400
C1094       C  0.19891977  0.08131156  0.58792314    -0.01520
C1095       C  0.18015172  0.06159859  0.57040451     0.03470
C1096       C  0.15976285  0.04062711  0.58528951    -0.04400
C1097       C  0.16180492  0.03749718  0.61804645    -0.01510
C1098       C  0.18485341  0.05387376  0.63486329     0.03470
C1099       C  0.21072640  0.10926039  0.57381073     0.38120
C1100       C  0.14051433  0.01765452  0.63461579     0.38110
C1101       C  0.18886177  0.04859282  0.66781398     0.36530
C1102       C  0.18479075  0.06115572  0.53709028     0.36530
N1103       N  0.19201407  0.04447881  0.69414711    -0.38290
N1104       N  0.18960117  0.06032058  0.51072826    -0.38290
N1105       N  0.12347969  0.00194337  0.64797147    -0.37730
N1106       N  0.21827524  0.13224845  0.56250371    -0.37740
C1107       C  0.21297694  0.09722289  0.40790068    -0.04400
C1108       C  0.19054896  0.08112321  0.39034589    -0.01520
C1109       C  0.16032070  0.07720926  0.40201693     0.03470
C1110       C  0.15253492  0.08902543  0.43154717    -0.04400
C1111       C  0.17435001  0.10723807  0.44787603    -0.01510
C1112       C  0.20455352  0.11103812  0.43625450     0.03470
C1113       C  0.19907184  0.06709302  0.36103985     0.38120
C1114       C  0.16584052  0.12146803  0.47711390     0.38110
C1115       C  0.22726944  0.12849290  0.45384778     0.36530
C1116       C  0.13794071  0.05930965  0.38445215     0.36530
N1117       N  0.24549680  0.14227512  0.46787688    -0.38290
N1118       N  0.12013977  0.04513502  0.37026782    -0.38290
N1119       N  0.15908641  0.13276723  0.50046249    -0.37730
N1120       N  0.20579759  0.05559800  0.33778626    -0.37740
C1121       C  0.91896573  0.82438179  0.57599969    -0.04400
C1122       C  0.90262867  0.84856858  0.56113241    -0.01520
C1123       C  0.91871628  0.87140831  0.54397506     0.03470
C1124       C  0.95121810  0.86947396  0.54017258    -0.04400
C1125       C  0.96727535  0.84461441  0.55455048    -0.01510
C1126       C  0.95151254  0.82342356  0.57354238     0.03470
C1127       C  0.86915822  0.84973596  0.56291052     0.38120
C1128       C  0.99999599  0.83947494  0.54886310     0.38110
C1129       C  0.96912635  0.80082148  0.59115223     0.36530
C1130       C  0.90169355  0.89712862  0.53085180     0.36530
N1131       N  0.98308564  0.78283373  0.60523227    -0.38290
N1132       N  0.88802623  0.91767189  0.52051066    -0.38290
N1133       N  0.02597662  0.83496853  0.54431944    -0.37730
N1134       N  0.84245323  0.85077362  0.56432649    -0.37740
C1135       C  0.07101290  0.61752311  0.19956668    -0.04400
C1136       C  0.03975577  0.62488763  0.19348117    -0.01520
C1137       C  0.02312144  0.60901496  0.16996165     0.03470
C1138       C  0.03794786  0.58608854  0.15177676    -0.04400
C1139       C  0.07003760  0.58086112  0.15635701    -0.01510
C1140       C  0.08600771  0.59543789  0.18085975     0.03470
C1141       C  0.02461920  0.64852801  0.21179401     0.38120
C1142       C  0.08707992  0.56093929  0.13537264     0.38110
C1143       C  0.11741523  0.58604202  0.18806184     0.36530
C1144       C  0.99057295  0.61569875  0.16538974     0.36530
N1145       N  0.14221005  0.57789538  0.19398260    -0.38290
N1146       N  0.96460831  0.62113455  0.16174040    -0.38290
N1147       N  0.10060808  0.54529928  0.11839056    -0.37730
N1148       N  0.01260035  0.66746264  0.22637459    -0.37740
C1149       C  0.70021342  0.45252788  0.41323468    -0.04400
C1150       C  0.70110149  0.45486256  0.44589750    -0.01520
C1151       C  0.67937609  0.47316740  0.46182227     0.03470
C1152       C  0.65432062  0.48726246  0.44574624    -0.04400
C1153       C  0.65250056  0.48360461  0.41313163    -0.01510
C1154       C  0.67573020  0.46700814  0.39693947     0.03470
C1155       C  0.72461615  0.43852051  0.46350550     0.38120
C1156       C  0.62667667  0.49661159  0.39608531     0.38110
C1157       C  0.67512517  0.46607091  0.36334319     0.36530
C1158       C  0.68433027  0.47880695  0.49471273     0.36530
N1159       N  0.67465707  0.46565333  0.33651579    -0.38290
N1160       N  0.68866109  0.48337022  0.52081914    -0.38290
N1161       N  0.60604536  0.50690009  0.38241980    -0.37730
N1162       N  0.74305614  0.42572640  0.47811729    -0.37740
C1163       C  0.07824716  0.65697580  0.54290003    -0.04400
C1164       C  0.06364039  0.68344146  0.55533029    -0.01520
C1165       C  0.08115207  0.70664818  0.57015789     0.03470
C1166       C  0.11374479  0.70411898  0.57237204    -0.04400
C1167       C  0.12840365  0.67776796  0.55959741    -0.01510
C1168       C  0.11072001  0.65425826  0.54504671     0.03470
C1169       C  0.03038361  0.68741104  0.55199267     0.38120
C1170       C  0.16184034  0.67533837  0.56032946     0.38110
C1171       C  0.12588515  0.62700712  0.53284396     0.36530
C1172       C  0.06513853  0.73317304  0.58289427     0.36530
N1173       N  0.13796011  0.60522271  0.52312907    -0.38290
N1174       N  0.05141730  0.75404958  0.59236726    -0.38290
N1175       N  0.18853302  0.67342008  0.56074929    -0.37730
N1176       N  0.00393049  0.69060493  0.54930675    -0.37740
C1177       C  0.92277501  0.65050410  0.57282491    -0.04400
C1178       C  0.91240882  0.67138848  0.54992863    -0.01520
C1179       C  0.90170948  0.70091367  0.55839528     0.03470
C1180       C  0.90262512  0.71043691  0.58977554    -0.04400
C1181       C  0.91248064  0.68909374  0.61277808    -0.01510
C1182       C  0.92196025  0.65907210  0.60426973     0.03470
C1183       C  0.91287981  0.66278686  0.51741059     0.38120
C1184       C  0.91396566  0.69805648  0.64516441     0.38110
C1185       C  0.93117638  0.63700119  0.62782487     0.36530
C1186       C  0.88925603  0.72124569  0.53468048     0.36530
N1187       N  0.93831865  0.61930274  0.64660959    -0.38290
N1188       N  0.87943572  0.73744280  0.51573116    -0.38290
N1189       N  0.91500968  0.70491391  0.67108907    -0.37730
N1190       N  0.91293623  0.65676923  0.49126417    -0.37740
C1191       C  0.04544292  0.43776071  0.37147407    -0.04400
C1192       C  0.07733941  0.43010065  0.37266831    -0.01520
C1193       C  0.09135253  0.41348322  0.34824055     0.03470
C1194       C  0.07336276  0.40226505  0.32316784    -0.04400
C1195       C  0.04095732  0.40710442  0.32360335    -0.01510
C1196       C  0.02718123  0.42529964  0.34710179     0.03470
C1197       C  0.09602349  0.43906955  0.39923276     0.38120
C1198       C  0.02162879  0.39347414  0.29964048     0.38110
C1199       C  0.99441318  0.43227545  0.34503584     0.36530
C1200       C  0.12468893  0.40953466  0.34832736     0.36530
N1201       N  0.96828544  0.43783970  0.34325703    -0.38290
N1202       N  0.15127496  0.40643701  0.34851333    -0.38290
N1203       N  0.00623133  0.38263727  0.28051241    -0.37730
N1204       N  0.11092334  0.44608283  0.42044248    -0.37740
C1205       C  0.08631704  0.59361642  0.37479501    -0.04400
C1206       C  0.08904265  0.57355719  0.34863005    -0.01520
C1207       C  0.09427421  0.58557674  0.31861380     0.03470
C1208       C  0.09601571  0.61776741  0.31372333    -0.04400
C1209       C  0.09497215  0.63767860  0.33977324    -0.01510
C1210       C  0.09146486  0.62569488  0.37004014     0.03470
C1211       C  0.08689912  0.54025553  0.35184982     0.38120
C1212       C  0.09640281  0.67090850  0.33574401     0.38110
C1213       C  0.09350337  0.64694234  0.39605508     0.36530
C1214       C  0.09848062  0.56448381  0.29271287     0.36530
N1215       N  0.09545306  0.66399648  0.41665691    -0.38290
N1216       N  0.10173053  0.54769553  0.27207691    -0.38290
N1217       N  0.09759235  0.69748008  0.33335051    -0.37730
N1218       N  0.08525484  0.51364940  0.35369184    -0.37740
C1219       C  0.86427017  0.48530540  0.57526630    -0.04400
C1220       C  0.86961822  0.47618492  0.60616155    -0.01520
C1221       C  0.84564493  0.46221658  0.62360093     0.03470
C1222       C  0.81656908  0.45538579  0.60956900    -0.04400
C1223       C  0.81154900  0.46509458  0.57837111    -0.01510
C1224       C  0.83489040  0.48078461  0.56194043     0.03470
C1225       C  0.90015306  0.48016126  0.61959659     0.38120
C1226       C  0.78298523  0.45828111  0.56200624     0.38110
C1227       C  0.82875127  0.49226875  0.53084147     0.36530
C1228       C  0.85101283  0.45548677  0.65612087     0.36530
N1229       N  0.82387586  0.50165307  0.50618907    -0.38290
N1230       N  0.85542453  0.45006918  0.68203856    -0.38290
N1231       N  0.76034458  0.45375678  0.54836706    -0.37730
N1232       N  0.92460108  0.48309766  0.63020091    -0.37740
C1233       C  0.87558750  0.45098841  0.41977215    -0.04400
C1234       C  0.86462327  0.47012626  0.39546520    -0.01520
C1235       C  0.83383944  0.46742034  0.38492985     0.03470
C1236       C  0.81394810  0.44568268  0.39858554    -0.04400
C1237       C  0.82489872  0.42646214  0.42274416    -0.01510
C1238       C  0.85558269  0.42920376  0.43337728     0.03470
C1239       C  0.88445608  0.49373598  0.38229977     0.38120
C1240       C  0.80476337  0.40331596  0.43627958     0.38110
C1241       C  0.86670204  0.40934979  0.45810255     0.36530
C1242       C  0.82235653  0.48735054  0.36047410     0.36530
N1243       N  0.87556433  0.39350024  0.47780316    -0.38290
N1244       N  0.81308817  0.50331165  0.34105682    -0.38290
N1245       N  0.78900288  0.38447412  0.44683300    -0.37730
N1246       N  0.90018907  0.51264129  0.37181261    -0.37740
C1247       C  0.32366026  0.94866651  0.11479345    -0.04400
C1248       C  0.34765686  0.93083679  0.10159597    -0.01520
C1249       C  0.37217682  0.94535925  0.08552335     0.03470
C1250       C  0.37189163  0.97774273  0.08014996    -0.04400
C1251       C  0.34849342  0.99565479  0.09440434    -0.01510
C1252       C  0.32532851  0.98133401  0.11245682     0.03470
C1253       C  0.34662649  0.89739251  0.10308418     0.38120
C1254       C  0.34697525  0.02876366  0.08942477     0.38110
C1255       C  0.30300520  0.00052771  0.12861748     0.36530
C1256       C  0.39798114  0.92671303  0.07495076     0.36530
N1257       N  0.28516172  0.01581412  0.14139840    -0.38290
N1258       N  0.41862459  0.91183319  0.06673219    -0.38290
N1259       N  0.34551830  0.05514771  0.08544269    -0.37730
N1260       N  0.34595785  0.87070248  0.10424466    -0.37740
C1261       C  0.95142516  0.11788533  0.32905917    -0.04400
C1262       C  0.98211646  0.12706234  0.33556616    -0.01520
C1263       C  0.99933686  0.11211810  0.35915181     0.03470
C1264       C  0.98563493  0.08827904  0.37696836    -0.04400
C1265       C  0.95386352  0.08140238  0.37224337    -0.01510
C1266       C  0.93725749  0.09532586  0.34778864     0.03470
C1267       C  0.99608138  0.15171791  0.31768533     0.38120
C1268       C  0.93787578  0.06032802  0.39290687     0.38110
C1269       C  0.90603397  0.08510951  0.34086425     0.36530
C1270       C  0.03142889  0.12061891  0.36405999     0.36530
N1271       N  0.88131691  0.07647724  0.33524126    -0.38290
N1272       N  0.05701753  0.12750439  0.36797091    -0.38290
N1273       N  0.92512275  0.04367658  0.40951351    -0.37730
N1274       N  0.00720275  0.17153401  0.30359876    -0.37740
C1275       C  0.18677157  0.27659135  0.87422325    -0.04400
C1276       C  0.17633138  0.27518558  0.84326888    -0.01520
C1277       C  0.19770435  0.27184242  0.81897293     0.03470
C1278       C  0.22965168  0.26894681  0.82559768    -0.04400
C1279       C  0.24019124  0.27210099  0.85653507    -0.01510
C1280       C  0.21872739  0.27619031  0.88076867     0.03470
C1281       C  0.14342672  0.27607316  0.83655659     0.38120
C1282       C  0.27287894  0.26947054  0.86371523     0.38110
C1283       C  0.22933844  0.27862452  0.91262038     0.36530
C1284       C  0.18672394  0.27100629  0.78712594     0.36530
N1285       N  0.23770518  0.28066668  0.93805588    -0.38290
N1286       N  0.17805606  0.27019539  0.76172019    -0.38290
N1287       N  0.29896431  0.26743198  0.86944851    -0.37730
N1288       N  0.11718551  0.27664897  0.83123302    -0.37740
C1289       C  0.11746986  0.32435367  0.95447707    -0.04400
C1290       C  0.12080399  0.32833136  0.98684235    -0.01520
C1291       C  0.10580822  0.35302950  0.00213218     0.03470
C1292       C  0.08756140  0.37425008  0.98506405    -0.04400
C1293       C  0.08607267  0.37136328  0.95234271    -0.01510
C1294       C  0.10061472  0.34639436  0.93722011     0.03470
C1295       C  0.13960999  0.30683488  0.00447336     0.38120
C1296       C  0.06950283  0.39413051  0.93402729     0.38110
C1297       C  0.09704287  0.34267874  0.90393711     0.36530
C1298       C  0.10793880  0.35545772  0.03562841     0.36530
N1299       N  0.09421428  0.33968277  0.87740807    -0.38290
N1300       N  0.10965437  0.35734576  0.06235438    -0.38290
N1301       N  0.05629600  0.41227351  0.91942367    -0.37730
N1302       N  0.15465741  0.28971069  0.01851376    -0.37740
C1303       C  0.15429844  0.97851904  0.94774438    -0.04400
C1304       C  0.17802435  0.99658150  0.93433136    -0.01520
C1305       C  0.20171414  0.98241254  0.91687538     0.03470
C1306       C  0.20366050  0.94972446  0.91464777    -0.04400
C1307       C  0.17962712  0.93172493  0.92761912    -0.01510
C1308       C  0.15442904  0.94612438  0.94259123     0.03470
C1309       C  0.17925015  0.02967724  0.93961213     0.38120
C1310       C  0.18126108  0.89826459  0.92718090     0.38110
C1311       C  0.12834400  0.92733294  0.95224715     0.36530
C1312       C  0.22410119  0.00184509  0.90112657     0.36530
N1313       N  0.10748034  0.91235336  0.95971630    -0.38290
N1314       N  0.24192442  0.01744123  0.88870549    -0.38290
N1315       N  0.18238304  0.87156566  0.92685265    -0.37730
N1316       N  0.18043183  0.05603470  0.94393164    -0.37740
C1317       C  0.20855448  0.94077975  0.12472402    -0.04400
C1318       C  0.18990268  0.96308345  0.13928879    -0.01520
C1319       C  0.15902790  0.96721524  0.12965118     0.03470
C1320       C  0.14665308  0.94893544  0.10535127    -0.04400
C1321       C  0.16532978  0.92640235  0.09097087    -0.01510
C1322       C  0.19619817  0.92230245  0.10066544     0.03470
C1323       C  0.20285115  0.98233304  0.16363488     0.38120
C1324       C  0.15267502  0.90725817  0.06637336     0.38110
C1325       C  0.21520176  0.89880969  0.08611452     0.36530
C1326       C  0.14061523  0.99150714  0.14364179     0.36530
N1327       N  0.23037291  0.88003544  0.07460843    -0.38290
N1328       N  0.12598780  0.01094492  0.15474146    -0.38290
N1329       N  0.14256201  0.89197701  0.04677942    -0.37730
N1330       N  0.21329459  0.99771910  0.18296483    -0.37740
C1331       C  0.94377035  0.15527456  0.98152739    -0.04400
C1332       C  0.95512724  0.17742069  0.96017758    -0.01520
C1333       C  0.93471762  0.19790546  0.94529500     0.03470
C1334       C  0.90315005  0.19837741  0.95335472    -0.04400
C1335       C  0.89156820  0.17657165  0.97458755    -0.01510
C1336       C  0.91169882  0.15467509  0.98827441     0.03470
C1337       C  0.98812040  0.18068592  0.95480245     0.38120
C1338       C  0.85891384  0.17662589  0.98207658     0.38110
C1339       C  0.89922033  0.13125149  0.00872224     0.36530
C1340       C  0.94636700  0.21912338  0.92197753     0.36530
N1341       N  0.88923149  0.11249874  0.02497054    -0.38290
N1342       N  0.95557711  0.23607936  0.90343979    -0.38290
N1343       N  0.83280707  0.17668181  0.98791834    -0.37730
N1344       N  0.01440341  0.18361400  0.95074152    -0.37740
C1345       C  0.11862797  0.20944747  0.93654078    -0.04400
C1346       C  0.09616461  0.19535321  0.91735253    -0.01520
C1347       C  0.08675878  0.16465288  0.92303135     0.03470
C1348       C  0.10004428  0.14780401  0.94770859    -0.04400
C1349       C  0.12300282  0.16181745  0.96650138    -0.01510
C1350       C  0.13218833  0.19253940  0.96093595     0.03470
C1351       C  0.08260699  0.21258527  0.89190547     0.38120
C1352       C  0.13628127  0.14515026  0.99251529     0.38110
C1353       C  0.15563881  0.20685803  0.98034533     0.36530
C1354       C  0.06361127  0.15027883  0.90334528     0.36530
N1355       N  0.17432922  0.21831913  0.99579741    -0.38290
N1356       N  0.04511823  0.13880801  0.88766051    -0.38290
N1357       N  0.14689109  0.13193422  0.01328800    -0.37730
N1358       N  0.07181802  0.22636944  0.87160863    -0.37740
C1359       C  0.95387866  0.90387611  0.20299851    -0.04400
C1360       C  0.93457692  0.92570282  0.18843853    -0.01520
C1361       C  0.94615557  0.94464698  0.16451590     0.03470
C1362       C  0.97800351  0.94326110  0.15583106    -0.04400
C1363       C  0.99673171  0.91980615  0.16946283    -0.01510
C1364       C  0.98456368  0.90022520  0.19261874     0.03470
C1365       C  0.90295130  0.92975034  0.19899078     0.38120
C1366       C  0.02873811  0.91548159  0.16036122     0.38110
C1367       C  0.00379906  0.87616925  0.20603293     0.36530
C1368       C  0.92459084  0.96530560  0.14909608     0.36530
N1369       N  0.01908801  0.85698115  0.21671259    -0.38290
N1370       N  0.90718099  0.98162061  0.13693479    -0.38290
N1371       N  0.05427640  0.91174043  0.15330361    -0.37730
N1372       N  0.87775231  0.93300068  0.20736311    -0.37740
C1373       C  0.94597988  0.10260930  0.15197649    -0.04400
C1374       C  0.91850887  0.09239274  0.16622924    -0.01520
C1375       C  0.91184119  0.10111380  0.19704558     0.03470
C1376       C  0.93294208  0.11960639  0.21396888    -0.04400
C1377       C  0.96037005  0.12988454  0.19964780    -0.01510
C1378       C  0.96679910  0.12155611  0.16872694     0.03470
C1379       C  0.89705577  0.07306188  0.14906775     0.38120
C1380       C  0.98191627  0.14929062  0.21664777     0.38110
C1381       C  0.99550014  0.13163202  0.15456859     0.36530
C1382       C  0.88347805  0.09067272  0.21155474     0.36530
N1383       N  0.01843366  0.13978121  0.14347176    -0.38290
N1384       N  0.86083063  0.08246595  0.22318211    -0.38290
N1385       N  0.99919111  0.16471482  0.23014310    -0.37730
N1386       N  0.87991848  0.05769735  0.13532235    -0.37740
C1387       C  0.22857406  0.75719629  0.70493381    -0.04400
C1388       C  0.21553471  0.78355277  0.69073535    -0.01520
C1389       C  0.19227203  0.78018682  0.66835060     0.03470
C1390       C  0.18916327  0.75204837  0.65155198    -0.04400
C1391       C  0.20508548  0.72584419  0.66320311    -0.01510
C1392       C  0.22198226  0.72787781  0.69142835     0.03470
C1393       C  0.22703221  0.81442078  0.69729044     0.38120
C1394       C  0.20501513  0.69689042  0.64634655     0.38110
C1395       C  0.23164031  0.69956376  0.70654603     0.36530
C1396       C  0.17070826  0.80562822  0.66451085     0.36530
N1397       N  0.23920993  0.67688274  0.71853624    -0.38290
N1398       N  0.15388546  0.82626082  0.66208392    -0.38290
N1399       N  0.20530228  0.67360054  0.63316887    -0.37730
N1400       N  0.23618774  0.83905134  0.70229916    -0.37740
C1401       C  0.25491785  0.81710529  0.80252525    -0.04400
C1402       C  0.28251662  0.83089938  0.81355864    -0.01520
C1403       C  0.28131186  0.85478378  0.83545096     0.03470
C1404       C  0.25395434  0.87289460  0.83880560    -0.04400
C1405       C  0.22697476  0.86217691  0.82308350    -0.01510
C1406       C  0.22671510  0.83267517  0.80872253     0.03470
C1407       C  0.31265225  0.82215822  0.80153142     0.38120
C1408       C  0.19990480  0.88159300  0.81962738     0.38110
C1409       C  0.19721548  0.81838573  0.80159915     0.36530
C1410       C  0.30833523  0.85848942  0.85521263     0.36530
N1411       N  0.17357096  0.80703635  0.79614773    -0.38290
N1412       N  0.33042485  0.86083230  0.87025533    -0.38290
N1413       N  0.17822655  0.89695396  0.81645339    -0.37730
N1414       N  0.33690819  0.81587055  0.79219300    -0.37740
C1415       C  0.37220166  0.69110653  0.78135684    -0.04400
C1416       C  0.34450474  0.68162765  0.79583643    -0.01520
C1417       C  0.31741742  0.69952723  0.79253489     0.03470
C1418       C  0.31772607  0.72633341  0.77398845    -0.04400
C1419       C  0.34566916  0.73650399  0.76063423    -0.01510
C1420       C  0.37299590  0.71947611  0.76513698     0.03470
C1421       C  0.34335050  0.65259979  0.81250127     0.38120
C1422       C  0.34608697  0.76386476  0.74122428     0.38110
C1423       C  0.40188589  0.73059448  0.75214381     0.36530
C1424       C  0.28882305  0.68965290  0.80694886     0.36530
N1425       N  0.42492509  0.73942352  0.74181066    -0.38290
N1426       N  0.26594113  0.68188545  0.81841245    -0.38290
N1427       N  0.34640772  0.78551922  0.72552212    -0.37730
N1428       N  0.34246256  0.62941875  0.82579279    -0.37740
C1429       C  0.70252464  0.23462933  0.75763872    -0.04400
C1430       C  0.67324030  0.24201534  0.76980378    -0.01520
C1431       C  0.64804675  0.22162854  0.76531971     0.03470
C1432       C  0.65211817  0.19351441  0.74893320    -0.04400
C1433       C  0.68125105  0.18686432  0.73579857    -0.01510
C1434       C  0.70625651  0.20736743  0.74005393     0.03470
C1435       C  0.66922827  0.27028798  0.78735155     0.38120
C1436       C  0.68617302  0.15813732  0.71929287     0.38110
C1437       C  0.73630485  0.19996942  0.72706976     0.36530
C1438       C  0.61795877  0.22933265  0.77795935     0.36530
N1439       N  0.76032324  0.19420763  0.71681297    -0.38290
N1440       N  0.59393955  0.23538125  0.78805911    -0.38290
N1441       N  0.69056630  0.13532833  0.70605475    -0.37730
N1442       N  0.66603425  0.29282742  0.80141554    -0.37740
C1443       C  0.84198769  0.24962520  0.86764788    -0.04400
C1444       C  0.84731896  0.27353126  0.84606930    -0.01520
C1445       C  0.82530462  0.27999044  0.82289570     0.03470
C1446       C  0.80246446  0.25760527  0.81465324    -0.04400
C1447       C  0.80177602  0.22986304  0.83242224    -0.01510
C1448       C  0.81887978  0.22752197  0.86040959     0.03470
C1449       C  0.87577849  0.29142680  0.84718194     0.38120
C1450       C  0.78474571  0.20298197  0.82176933     0.38110
C1451       C  0.81161695  0.20284259  0.88191113     0.36530
C1452       C  0.82582289  0.31085045  0.80990399     0.36530
N1453       N  0.80563440  0.18318344  0.89904521    -0.38290
N1454       N  0.82734071  0.33569394  0.80017522    -0.38290
N1455       N  0.77131720  0.18139028  0.81337482    -0.37730
N1456       N  0.89844797  0.30563758  0.84799997    -0.37740
C1457       C  0.78173000  0.36657358  0.67839398    -0.04400
C1458       C  0.77977216  0.37111245  0.71069996    -0.01520
C1459       C  0.77494065  0.34577613  0.73045915     0.03470
C1460       C  0.77423449  0.31547914  0.71824991    -0.04400
C1461       C  0.77803701  0.31075707  0.68611329    -0.01510
C1462       C  0.78138519  0.33634177  0.66613703     0.03470
C1463       C  0.78063476  0.40220028  0.72333423     0.38120
C1464       C  0.77693072  0.27971844  0.67354856     0.38110
C1465       C  0.78258157  0.33179349  0.63285363     0.36530
C1466       C  0.76741229  0.35121831  0.76279475     0.36530
N1467       N  0.78340270  0.32825496  0.60626726    -0.38290
N1468       N  0.76085847  0.35568814  0.78841379    -0.38290
N1469       N  0.77585632  0.25490776  0.66361935    -0.37730
N1470       N  0.78139534  0.42700216  0.73331951    -0.37740
C1471       C  0.73314752  0.25882986  0.20321127    -0.04400
C1472       C  0.70154284  0.25200013  0.20764595    -0.01520
C1473       C  0.68166392  0.24899768  0.18197097     0.03470
C1474       C  0.69353152  0.25116265  0.15161106    -0.04400
C1475       C  0.72546304  0.25615120  0.14706692    -0.01510
C1476       C  0.74527721  0.26013029  0.17286199     0.03470
C1477       C  0.68948119  0.24782916  0.23874402     0.38120
C1478       C  0.73757751  0.25842942  0.11582688     0.38110
C1479       C  0.77784272  0.26657380  0.16819634     0.36530
C1480       C  0.64862924  0.24586070  0.18689719     0.36530
N1481       N  0.80384209  0.27169743  0.16447821    -0.38290
N1482       N  0.62228045  0.24394641  0.19109906    -0.38290
N1483       N  0.74714366  0.26024242  0.09085697    -0.37730
N1484       N  0.67996890  0.24423869  0.26353673    -0.37740
C1485       C  0.81744853  0.22557064  0.27464371    -0.04400
C1486       C  0.81469785  0.19838674  0.29231110    -0.01520
C1487       C  0.84037241  0.17854156  0.29580392     0.03470
C1488       C  0.86892944  0.18604742  0.28179169    -0.04400
C1489       C  0.87212012  0.21446615  0.26600329    -0.01510
C1490       C  0.84639562  0.23399969  0.26218825     0.03470
C1491       C  0.78513643  0.19039716  0.30591359     0.38120
C1492       C  0.90181832  0.22328844  0.25308399     0.38110
C1493       C  0.84947261  0.26245272  0.24468094     0.36530
C1494       C  0.83685308  0.14976590  0.31250394     0.36530
N1495       N  0.85184538  0.28510390  0.23066989    -0.38290
N1496       N  0.83368930  0.12690417  0.32597315    -0.38290
N1497       N  0.92549995  0.23023025  0.24275699    -0.37730
N1498       N  0.76150003  0.18412877  0.31674871    -0.37740
C1499       C  0.75785395  0.32091949  0.29956899    -0.04400
C1500       C  0.78310609  0.33201732  0.31732540    -0.01520
C1501       C  0.77836113  0.35388568  0.34082323     0.03470
C1502       C  0.75129255  0.37253433  0.34094278    -0.04400
C1503       C  0.72667023  0.36366022  0.32100829    -0.01510
C1504       C  0.72900559  0.33646607  0.30267931     0.03470
C1505       C  0.81470795  0.32285172  0.31046477     0.38120
C1506       C  0.69913315  0.38252077  0.31831444     0.38110
C1507       C  0.70133895  0.32473868  0.28768758     0.36530
C1508       C  0.80137561  0.35573594  0.36536738     0.36530
N1509       N  0.67896962  0.31584856  0.27587805    -0.38290
N1510       N  0.82020936  0.35646451  0.38446855    -0.38290
N1511       N  0.67695431  0.39724595  0.31572806    -0.37730
N1512       N  0.83994857  0.31582595  0.30504524    -0.37740
C1513       C  0.30209727  0.26888798  0.20748425    -0.04400
C1514       C  0.30097453  0.29590788  0.18859097    -0.01520
C1515       C  0.31788909  0.29722837  0.16052464     0.03470
C1516       C  0.34182389  0.27587439  0.15470219    -0.04400
C1517       C  0.34647393  0.25189248  0.17649210    -0.01510
C1518       C  0.32391356  0.24576185  0.19904656     0.03470
C1519       C  0.28290552  0.32273177  0.19718625     0.38120
C1520       C  0.37392789  0.23258814  0.17534250     0.38110
C1521       C  0.32154256  0.21424965  0.21031080     0.36530
C1522       C  0.30776948  0.31829299  0.13657824     0.36530
N1523       N  0.31967155  0.18902762  0.21897327    -0.38290
N1524       N  0.29778908  0.33449557  0.11776894    -0.38290
N1525       N  0.39574119  0.21713239  0.17476477    -0.37730
N1526       N  0.26862817  0.34449164  0.20328067    -0.37740
C1527       C  0.27654047  0.20813515  0.30150322    -0.04400
C1528       C  0.26163791  0.18040015  0.29289384    -0.01520
C1529       C  0.26527160  0.15374054  0.31112407     0.03470
C1530       C  0.28336951  0.15473919  0.33847373    -0.04400
C1531       C  0.30069680  0.18167358  0.34524724    -0.01510
C1532       C  0.29725089  0.20833508  0.32672738     0.03470
C1533       C  0.24229347  0.17938148  0.26531599     0.38120
C1534       C  0.32142541  0.18258485  0.37161542     0.38110
C1535       C  0.31421489  0.23628897  0.33412816     0.36530
C1536       C  0.25010590  0.12527210  0.30183918     0.36530
N1537       N  0.32780260  0.25860157  0.33990425    -0.38290
N1538       N  0.23803100  0.10265348  0.29419067    -0.38290
N1539       N  0.33856670  0.18405673  0.39219207    -0.37730
N1540       N  0.22691042  0.17859831  0.24332184    -0.37740
C1541       C  0.20431557  0.29155963  0.26831335    -0.04400
C1542       C  0.17432460  0.27861800  0.27034253    -0.01520
C1543       C  0.14833216  0.29802758  0.27419949     0.03470
C1544       C  0.15224660  0.33030432  0.27579665    -0.04400
C1545       C  0.18227542  0.34304623  0.27546455    -0.01510
C1546       C  0.20820901  0.32373618  0.27227130     0.03470
C1547       C  0.17007494  0.24552167  0.26770569     0.38120
C1548       C  0.18639332  0.37626988  0.27744660     0.38110
C1549       C  0.23902185  0.33698853  0.27380836     0.36530
C1550       C  0.11748311  0.28499432  0.27573819     0.36530
N1551       N  0.26358906  0.34751936  0.27529223    -0.38290
N1552       N  0.09282583  0.27468558  0.27713344    -0.38290
N1553       N  0.18960314  0.40276261  0.27885983    -0.37730
N1554       N  0.16655934  0.21909858  0.26578730    -0.37740
C1555       C  0.75539555  0.70306488  0.23367151    -0.04400
C1556       C  0.75104269  0.70594841  0.20131227    -0.01520
C1557       C  0.74746118  0.67942342  0.18279604     0.03470
C1558       C  0.74668242  0.64997806  0.19668134    -0.04400
C1559       C  0.74858608  0.64715502  0.22915962    -0.01510
C1560       C  0.75330183  0.67359974  0.24766590     0.03470
C1561       C  0.74935024  0.73623729  0.18709861     0.38120
C1562       C  0.74634884  0.61688263  0.24334479     0.38110
C1563       C  0.75690499  0.67024171  0.28092672     0.36530
C1564       C  0.74599624  0.68226519  0.14927647     0.36530
N1565       N  0.75961225  0.66730285  0.30746118    -0.38290
N1566       N  0.74506537  0.68436889  0.12253764    -0.38290
N1567       N  0.74436854  0.59271126  0.25458164    -0.37730
N1568       N  0.74744063  0.76031193  0.17564656    -0.37740
C1569       C  0.82278597  0.79499770  0.26085817    -0.04400
C1570       C  0.83562225  0.80950257  0.28738329    -0.01520
C1571       C  0.85905901  0.83158907  0.28405640     0.03470
C1572       C  0.87737518  0.83220279  0.25672106    -0.04400
C1573       C  0.86697200  0.81451400  0.23094384    -0.01510
C1574       C  0.83810118  0.79912170  0.23209715     0.03470
C1575       C  0.82628465  0.80088144  0.31854928     0.38120
C1576       C  0.88580742  0.81103018  0.20339594     0.38110
C1577       C  0.82406193  0.78899312  0.20328280     0.36530
C1578       C  0.86228781  0.85474198  0.30828965     0.36530
N1579       N  0.81330752  0.78149931  0.17985979    -0.38290
N1580       N  0.86470792  0.87311726  0.32766132    -0.38290
N1581       N  0.90063917  0.80804314  0.18129208    -0.37730
N1582       N  0.81915737  0.79395253  0.34344265    -0.37740
C1583       C  0.72727640  0.77377734  0.32010121    -0.04400
C1584       C  0.70270281  0.79500956  0.31964324    -0.01520
C1585       C  0.68375432  0.79845233  0.34597283     0.03470
C1586       C  0.68956032  0.78067467  0.37291245    -0.04400
C1587       C  0.71621113  0.76175204  0.37419189    -0.01510
C1588       C  0.73481218  0.75808849  0.34775869     0.03470
C1589       C  0.69648887  0.81262198  0.29172467     0.38120
C1590       C  0.72428549  0.74568530  0.40263877     0.38110
C1591       C  0.76161817  0.73793514  0.34891934     0.36530
C1592       C  0.65778264  0.81948413  0.34461231     0.36530
N1593       N  0.78304474  0.72196225  0.34992736    -0.38290
N1594       N  0.63745304  0.83675060  0.34298851    -0.38290
N1595       N  0.73063496  0.73278808  0.42527141    -0.37730
N1596       N  0.69170514  0.82670304  0.26943282    -0.37740
C1597       C  0.26508199  0.82141121  0.23151815    -0.04400
C1598       C  0.23951545  0.83215208  0.21407948    -0.01520
C1599       C  0.24384575  0.85383234  0.19042888     0.03470
C1600       C  0.27051183  0.87311203  0.19028503    -0.04400
C1601       C  0.29490381  0.86546760  0.21104328    -0.01510
C1602       C  0.29337596  0.83801093  0.22900283     0.03470
C1603       C  0.20812663  0.82235166  0.22100711     0.38120
C1604       C  0.32119295  0.88586748  0.21502094     0.38110
C1605       C  0.32133559  0.82675535  0.24376656     0.36530
C1606       C  0.22122191  0.85430360  0.16542829     0.36530
N1607       N  0.34378882  0.81783667  0.25536572    -0.38290
N1608       N  0.20296084  0.85425868  0.14575308    -0.38290
N1609       N  0.34219935  0.90209521  0.21852522    -0.37730
N1610       N  0.18297538  0.81494500  0.22633438    -0.37740
C1611       C  0.20796071  0.72389858  0.25099954    -0.04400
C1612       C  0.17867995  0.73306702  0.26207245    -0.01520
C1613       C  0.15269671  0.71418550  0.25694868     0.03470
C1614       C  0.15614572  0.68514516  0.24249753    -0.04400
C1615       C  0.18502284  0.67690232  0.22967588    -0.01510
C1616       C  0.21086555  0.69649482  0.23365223     0.03470
C1617       C  0.17553985  0.76132603  0.27993030     0.38120
C1618       C  0.18848485  0.64797659  0.21322602     0.38110
C1619       C  0.24065285  0.68810415  0.22082416     0.36530
C1620       C  0.12229241  0.72460305  0.26650538     0.36530
N1621       N  0.26445640  0.68155130  0.21054287    -0.38290
N1622       N  0.09799312  0.73319424  0.27364704    -0.38290
N1623       N  0.19175788  0.62508178  0.19980868    -0.37730
N1624       N  0.17314638  0.78372298  0.29438509    -0.37740
C1625       C  0.29006439  0.75559497  0.32534774    -0.04400
C1626       C  0.28190662  0.76871619  0.35406384    -0.01520
C1627       C  0.30112931  0.76431884  0.38015762     0.03470
C1628       C  0.32892782  0.74727698  0.37745260    -0.04400
C1629       C  0.33595847  0.73254978  0.34909225    -0.01510
C1630       C  0.31648211  0.73661059  0.32316598     0.03470
C1631       C  0.25401873  0.78713220  0.35655109     0.38120
C1632       C  0.36403069  0.71455296  0.34593278     0.38110
C1633       C  0.32423779  0.72220841  0.29378774     0.36530
C1634       C  0.29253080  0.77767548  0.40975520     0.36530
N1635       N  0.33030505  0.71075560  0.27032563    -0.38290
N1636       N  0.28550022  0.78824967  0.43335372    -0.38290
N1637       N  0.38628050  0.70001844  0.34307701    -0.37730
N1638       N  0.23177079  0.80184351  0.35847154    -0.37740
C1639       C  0.80242695  0.77546795  0.70651233    -0.04400
C1640       C  0.83467946  0.77495973  0.71272231    -0.01520
C1641       C  0.85614797  0.77868630  0.68842480     0.03470
C1642       C  0.84572883  0.78356488  0.65786363    -0.04400
C1643       C  0.81400505  0.78738538  0.65201354    -0.01510
C1644       C  0.79237981  0.78352645  0.67615263     0.05150
C1645       C  0.84602288  0.77056056  0.74409002     0.38120
C1646       C  0.80355066  0.79377550  0.62061323     0.38110
C1647       C  0.76001486  0.78711687  0.66860429     0.36530
C1648       C  0.88907612  0.77651126  0.69459409     0.36530
N1649       N  0.73482600  0.79113630  0.66056448    -0.38290
N1650       N  0.91536232  0.77483612  0.69942525    -0.38290
N1651       N  0.79518835  0.79883584  0.59561358    -0.37730
N1652       N  0.85537763  0.76698392  0.76899169    -0.37740
C1653       C  0.77152670  0.70040415  0.78941591    -0.04400
C1654       C  0.79023090  0.70431673  0.81596974    -0.01520
C1655       C  0.79422405  0.67981047  0.83710994     0.03470
C1656       C  0.77978576  0.65102951  0.83167399    -0.04400
C1657       C  0.76278547  0.64659604  0.80386603    -0.01510
C1658       C  0.75834315  0.67133706  0.78302682     0.03470
C1659       C  0.80374723  0.73430544  0.82258641     0.38120
C1660       C  0.74894079  0.61680949  0.79717817     0.38110
C1661       C  0.73907229  0.66734655  0.75572683     0.36530
C1662       C  0.81113422  0.68534686  0.86558515     0.36530
N1663       N  0.72355255  0.66426286  0.73403206    -0.38290
N1664       N  0.82458656  0.69085725  0.88812624    -0.38290
N1665       N  0.73784618  0.59311532  0.79163174    -0.37730
N1666       N  0.81434965  0.75825422  0.82800500    -0.37740
C1667       C  0.70395104  0.79183501  0.76694829    -0.04400
C1668       C  0.69376414  0.80095873  0.79674573    -0.01520
C1669       C  0.66662589  0.81927217  0.79983121     0.03470
C1670       C  0.65324228  0.83369048  0.77322210    -0.04400
C1671       C  0.66667765  0.82655779  0.74390613    -0.01510
C1672       C  0.68707218  0.80183388  0.74115287     0.03470
C1673       C  0.71073708  0.79139370  0.82412535     0.38120
C1674       C  0.66233328  0.84544157  0.71645308     0.38110
C1675       C  0.68642341  0.78338222  0.71314915     0.36530
C1676       C  0.65254100  0.82187612  0.83014145     0.36530
N1677       N  0.68405233  0.76754646  0.69165131    -0.38290
N1678       N  0.64153261  0.82358095  0.85451942    -0.38290
N1679       N  0.65939045  0.86003529  0.69417152    -0.37730
N1680       N  0.72432504  0.78380749  0.84598689    -0.37740
loop_ 
_geom_bond_atom_site_label_1 
_geom_bond_atom_site_label_2 
_geom_bond_distance 
_geom_bond_site_symmetry_2 
_ccdc_geom_bond_type 
C1            C2   1.401       .  A
C1            C6   1.401       .  A
C1         C1653   1.484       .  S
C2            C3   1.402       .  A
C2            H7   1.083       .  S
C3            C4   1.413       .  A
C3         C1667   1.496       .  S
C4            C5   1.406       .  A
C4            H8   1.083       .  S
C5            C6   1.408       .  A
C5         C1639   1.504       .  S
C6            H9   1.084       .  S
C10          C11   1.397       .  A
C10          C15   1.406       .  A
C10        C1625   1.481       .  S
C11          C12   1.395       .  A
C11          H16   1.084       .  S
C12          C13   1.397       .  A
C12        C1611   1.480       .  S
C13          C14   1.413       .  A
C13          H17   1.082       .  S
C14          C15   1.412       .  A
C14        C1597   1.511       .  S
C15          H18   1.081       .  S
C19          C20   1.408       .  A
C19          C24   1.411       .  A
C19        C1569   1.506       .  S
C20          C21   1.394       .  A
C20          H25   1.083       .  S
C21          C22   1.395       .  A
C21        C1583   1.477       .  S
C22          C23   1.398       .  A
C22          H26   1.084       .  S
C23          C24   1.408       .  A
C23        C1555   1.486       .  S
C24          H27   1.082       .  S
C28          C29   1.409       .  A
C28          C33   1.396       .  A
C28        C1541   1.489       .  S
C29          C30   1.416       .  A
C29          H34   1.079       .  S
C30          C31   1.413       .  A
C30        C1513   1.521       .  S
C31          C32   1.397       .  A
C31          H35   1.080       .  S
C32          C33   1.396       .  A
C32        C1527   1.481       .  S
C33          H36   1.084       .  S
C37          C38   1.398       .  A
C37          C42   1.396       .  A
C37        C1485   1.481       .  S
C38          C39   1.413       .  A
C38          H43   1.082       .  S
C39          C40   1.411       .  A
C39        C1499   1.513       .  S
C40          C41   1.407       .  A
C40          H44   1.081       .  S
C41          C42   1.397       .  A
C41        C1471   1.483       .  S
C42          H45   1.084       .  S
C46          C47   1.396       .  A
C46          C51   1.400       .  A
C46        C1460   1.483       .  S
C47          C48   1.396       .  A
C47          H52   1.084       .  S
C48          C49   1.407       .  A
C48        C1429   1.487       .  S
C49          C50   1.419       .  A
C49          H53   1.080       .  S
C50          C51   1.412       .  A
C50        C1446   1.523       .  S
C51          H54   1.079       .  S
C55          C56   1.415       .  A
C55          C60   1.407       .  A
C55        C1387   1.511       .  S
C56          C57   1.407       .  A
C56          H61   1.075       .  S
C57          C58   1.405       .  A
C57        C1401   1.511       .  S
C58          C59   1.396       .  A
C58          H62   1.084       .  S
C59          C60   1.401       .  A
C59        C1418   1.481       .  S
C60          H63   1.082       .  S
O64         Mg66   2.135       .  S
O64         Mg72   2.150       .  S
O64          C99   1.239       .  S
C65         H104   1.082       .  S
C65          O78   1.237       .  S
C65         O102   1.271       .  A
Mg66         O95   2.136   1_556  S
Mg66        O110   2.291       .  S
Mg66        O106   2.236   1_455  S
Mg66         O77   2.295   1_455  S
O67        Mg109   2.150       .  S
O67         Mg92   2.135       .  S
O67          C88   1.240       .  S
O68          C99   1.273   1_565  A
O68         Mg92   2.300   1_556  S
C69        C1373   1.480       .  S
C69          O71   1.275       .  A
C69          O83   1.272       .  A
O70          C98   1.270       .  A
O70         Mg72   2.297   1_554  S
O71        Mg103   2.279       .  S
Mg72         O78   2.121   1_556  S
Mg72         O86   2.274       .  S
Mg72         O74   2.343       .  S
C73        C1362   1.513       .  S
C73         O111   1.269       .  A
C73          O79   1.276   1_655  A
O74          C81   1.280   1_545  A
H75          C88   1.082       .  S
C76         H101   1.082       .  S
C76          O90   1.236       .  S
C76          O91   1.269       .  A
O77         C100   1.273   1_556  A
O78         Mg92   2.130   1_545  S
O79        Mg109   2.323       .  S
C80        C1320   1.478       .  S
C80          O93   1.272       .  A
C80          O85   1.270       .  A
C81        C1303   1.501       .  S
C81         O108   1.269       .  A
Mg82         O89   2.133       .  S
Mg82         O90   2.127   1_655  S
Mg82         O83   2.285       .  S
Mg82         O84   2.303   1_545  S
Mg82        O111   2.245   1_545  S
O84          C88   1.274   1_655  A
O85         Mg92   2.273       .  S
O86         C105   1.275       .  A
O87         C107   1.279   1_554  A
O87        Mg103   2.334       .  S
O89        Mg103   2.158       .  S
O89         C100   1.240       .  S
O90        Mg109   2.115   1_545  S
O91        Mg103   2.292   1_455  S
Mg92        O108   2.237   1_554  S
O93        Mg109   2.264       .  S
H94          C99   1.082       .  S
O95        Mg103   2.125   1_455  S
O95          C98   1.236       .  S
H96          C98   1.082       .  S
H97         C100   1.082       .  S
O102       Mg109   2.301   1_545  S
C105       C1348   1.482       .  S
C105        O110   1.273       .  A
O106        C107   1.270       .  A
C107       C1331   1.493       .  S
C112        C113   1.409       .  A
C112        C117   1.407       .  A
C112       C1289   1.493       .  S
C113        C114   1.404       .  A
C113        H118   1.084       .  S
C114        C115   1.395       .  A
C114       C1345   1.483       .  S
C115        C116   1.397       .  A
C115        H119   1.085       .  S
C116        C117   1.402       .  A
C116       C1275   1.478       .  S
C117        H120   1.084       .  S
C121        C122   1.408       .  A
C121        C126   1.407       .  A
C121       C1261   1.490       .  S
C122        C123   1.406       .  A
C122        H127   1.083       .  S
C123        C124   1.400       .  A
C123       C1488   1.487       .  S
C124        C125   1.396       .  A
C124        H128   1.085       .  S
C125        C126   1.404       .  A
C125       C1376   1.486       .  S
C126        H129   1.084       .  S
C130        C131   1.418       .  A
C130        C135   1.406       .  A
C130       C1247   1.506       .  S
C131        C132   1.419       .  A
C131        H136   1.078       .  S
C132        C133   1.405       .  A
C132       C1600   1.516       .  S
C133        C134   1.390       .  A
C133        H137   1.083       .  S
C134        C135   1.394       .  A
C134       C1317   1.479       .  S
C135        H138   1.084       .  S
O139       Mg141   2.140   1_655  S
O139       Mg147   2.149       .  S
O139        C174   1.240       .  S
C140        H179   1.082       .  S
C140        O153   1.237       .  S
C140        O177   1.269       .  A
Mg141       O170   2.132   1_455  S
Mg141       O185   2.305   1_455  S
Mg141       O181   2.232       .  S
Mg141       O152   2.305       .  S
O142       Mg184   2.156       .  S
O142       Mg167   2.140       .  S
O142        C163   1.240   1_655  S
O143        C174   1.274       .  A
O143       Mg167   2.302       .  S
C144       C1205   1.515       .  S
C144        O146   1.276       .  A
C144        O158   1.272       .  A
O145        C173   1.270       .  A
O145       Mg147   2.299       .  S
O146       Mg178   2.286       .  S
Mg147       O153   2.111       .  S
Mg147       O161   2.264       .  S
Mg147       O149   2.337       .  S
C148       C1191   1.504       .  S
C148        O186   1.272       .  A
C148        O154   1.278       .  A
O149        C156   1.277       .  A
H150        C163   1.082       .  S
C151        H176   1.082       .  S
C151        O165   1.235   1_655  S
C151        O166   1.269   1_655  A
O152        C175   1.274       .  A
O153       Mg167   2.125       .  S
O154       Mg184   2.334   1_455  S
C155       C1233   1.478       .  S
C155        O168   1.273       .  A
C155        O160   1.272       .  A
C156       C1219   1.483       .  S
C156        O183   1.270       .  A
Mg157       O164   2.149       .  S
Mg157       O165   2.126       .  S
Mg157       O158   2.289       .  S
Mg157       O159   2.300       .  S
Mg157       O186   2.257       .  S
O159        C163   1.273       .  A
O160       Mg167   2.280       .  S
O161        C180   1.271       .  A
O162        C182   1.281       .  A
O162       Mg178   2.353       .  S
O164       Mg178   2.155       .  S
O164        C175   1.240       .  S
O165       Mg184   2.117   1_455  S
O166       Mg178   2.297       .  S
Mg167       O183   2.249       .  S
O168       Mg184   2.261       .  S
H169        C174   1.082       .  S
O170       Mg178   2.135   1_655  S
O170        C173   1.236       .  S
H171        C173   1.082       .  S
H172        C175   1.082       .  S
O177       Mg184   2.296       .  S
C180       C1177   1.477       .  S
C180        O185   1.273       .  A
O181        C182   1.269       .  A
C182       C1163   1.491       .  S
C187        C188   1.418       .  A
C187        C192   1.405       .  A
C187       C1149   1.500       .  S
C188        C189   1.422       .  A
C188        H193   1.081       .  S
C189        C190   1.406       .  A
C189       C1502   1.516       .  S
C190        C191   1.389       .  A
C190        H194   1.083       .  S
C191        C192   1.392       .  A
C191       C1236   1.479       .  S
C192        H195   1.084       .  S
C196        C197   1.408       .  A
C196        C201   1.408       .  A
C196       C1135   1.493       .  S
C197        C198   1.410       .  A
C197        H202   1.083       .  S
C198        C199   1.401       .  A
C198       C1208   1.502       .  S
C199        C200   1.400       .  A
C199        H203   1.084       .  S
C200        C201   1.403       .  A
C200       C1614   1.485       .  S
C201        H204   1.083       .  S
C205        C206   1.408       .  A
C205        C210   1.408       .  A
C205       C1121   1.499       .  S
C206        C207   1.405       .  A
C206        H211   1.083       .  S
C207        C208   1.399       .  A
C207       C1642   1.481       .  S
C208        C209   1.398       .  A
C208        H212   1.084       .  S
C209        C210   1.404       .  A
C209       C1180   1.496       .  S
C210        H213   1.083       .  S
O214       Mg216   2.099       .  S
O214       Mg222   2.124   1_455  S
O214        C249   1.235       .  S
C215        H254   1.082       .  S
C215        O228   1.240   1_545  S
C215        O252   1.275   1_655  A
Mg216       O245   2.129       .  S
Mg216       O260   2.265   1_455  S
Mg216       O256   2.209       .  S
Mg216       O227   2.297       .  S
O217       Mg259   2.135       .  S
O217       Mg242   2.104   1_545  S
O217        C238   1.235       .  S
O218        C249   1.268       .  A
O218       Mg242   2.291       .  S
C219       C1096   1.501       .  S
C219        O221   1.272   1_545  A
C219        O233   1.269       .  A
O220        C248   1.276   1_655  A
O220       Mg222   2.320       .  S
O221       Mg253   2.295       .  S
Mg222       O228   2.162       .  S
Mg222       O236   2.320       .  S
Mg222       O224   2.331       .  S
C223       C1110   1.483       .  S
C223        O261   1.265       .  A
C223        O229   1.279       .  A
O224        C231   1.278       .  A
H225        C238   1.082   1_565  S
C226        H251   1.082       .  S
C226        O240   1.240       .  S
C226        O241   1.276       .  A
O227        C250   1.269       .  A
O228       Mg242   2.148   1_655  S
O229       Mg259   2.354       .  S
C230       C1264   1.500   1_455  S
C230        O243   1.275       .  A
C230        O235   1.273   1_455  A
C231       C1065   1.486       .  S
C231        O258   1.269       .  A
Mg232       O239   2.104   1_545  S
Mg232       O240   2.124       .  S
Mg232       O233   2.269       .  S
Mg232       O234   2.292       .  S
Mg232       O261   2.211       .  S
O234        C238   1.269       .  A
O235       Mg242   2.282   1_645  S
O236        C255   1.277       .  A
O237        C257   1.275       .  A
O237       Mg253   2.328       .  S
O239       Mg253   2.121       .  S
O239        C250   1.235       .  S
O240       Mg259   2.154       .  S
O241       Mg253   2.322   1_545  S
Mg242       O258   2.213   1_455  S
O243       Mg259   2.298       .  S
H244        C249   1.082       .  S
O245       Mg253   2.155       .  S
O245        C248   1.240       .  S
H246        C248   1.082       .  S
H247        C250   1.083       .  S
O252       Mg259   2.312       .  S
C255       C1124   1.504       .  S
C255        O260   1.269       .  A
O256        C257   1.264       .  A
C257       C1079   1.475       .  S
C262        C263   1.417       .  A
C262        C267   1.403       .  A
C262       C1166   1.500       .  S
C263        C264   1.422       .  A
C263        H268   1.080       .  S
C264        C265   1.406       .  A
C264       C1390   1.515       .  S
C265        C266   1.388       .  A
C265        H269   1.083       .  S
C266        C267   1.396       .  A
C266       C1082   1.480       .  S
C267        H270   1.084       .  S
C271        C272   1.410       .  A
C271        C276   1.408       .  A
C271       C1051   1.494       .  S
C272        C273   1.407       .  A
C272        H277   1.083       .  S
C273        C274   1.401       .  A
C273       C1530   1.490       .  S
C274        C275   1.394       .  A
C274        H278   1.085       .  S
C275        C276   1.404       .  A
C275       C1107   1.484       .  S
C276        H279   1.084       .  S
C280        C281   1.408       .  A
C280        C285   1.400       .  A
C280       C1359   1.491       .  S
C281        C282   1.414       .  A
C281        H286   1.079       .  S
C282        C283   1.408       .  A
C282       C1572   1.512       .  S
C283        C284   1.395       .  A
C283        H287   1.081       .  S
C284        C285   1.398       .  A
C284       C1068   1.490       .  S
C285        H288   1.084       .  S
O289       Mg291   2.099   1_556  S
O289       Mg297   2.127       .  S
O289        C324   1.235       .  S
C290        H329   1.083       .  S
C290        O303   1.240       .  S
C290        O327   1.276       .  A
Mg291       O320   2.142       .  S
Mg291       O335   2.272       .  S
Mg291       O331   2.205       .  S
Mg291       O302   2.295   1_554  S
O292       Mg334   2.120       .  S
O292       Mg317   2.101       .  S
O292        C313   1.235       .  S
O293        C324   1.268       .  A
O293       Mg317   2.289       .  S
C294        C967   1.500       .  S
C294        O296   1.275       .  A
C294        O308   1.269       .  A
O295        C323   1.276       .  A
O295       Mg297   2.319   1_554  S
O296       Mg328   2.310       .  S
Mg297       O303   2.166       .  S
Mg297       O311   2.311       .  S
Mg297       O299   2.349       .  S
C298        C981   1.479       .  S
C298        O336   1.265       .  A
C298        O304   1.278       .  A
O299        C306   1.278       .  A
H300        C313   1.082       .  S
C301        H326   1.082       .  S
C301        O315   1.241   1_554  S
C301        O316   1.277       .  A
O302        C325   1.268   1_556  A
O303       Mg317   2.133       .  S
O304       Mg334   2.343       .  S
C305       C1023   1.503       .  S
C305        O318   1.276       .  A
C305        O310   1.271       .  A
C306       C1037   1.475       .  S
C306        O333   1.265       .  A
Mg307       O314   2.113   1_556  S
Mg307       O315   2.137       .  S
Mg307       O308   2.268   1_556  S
Mg307       O309   2.291       .  S
Mg307       O336   2.216       .  S
O309        C313   1.268       .  A
O310       Mg317   2.279       .  S
O311        C330   1.276   1_556  A
O312        C332   1.279       .  A
O312       Mg328   2.346       .  S
O314       Mg328   2.123       .  S
O314        C325   1.235       .  S
O315       Mg334   2.161       .  S
O316       Mg328   2.324       .  S
Mg317       O333   2.214       .  S
O318       Mg334   2.313       .  S
H319        C324   1.081       .  S
O320       Mg328   2.165       .  S
O320        C323   1.241       .  S
H321        C323   1.082       .  S
H322        C325   1.082   1_556  S
O327       Mg334   2.322       .  S
C330        C995   1.493       .  S
C330        O335   1.271       .  A
O331        C332   1.265       .  A
C332       C1009   1.480       .  S
C337        C338   1.405       .  A
C337        C342   1.404       .  A
C337        C953   1.488       .  S
C338        C339   1.407       .  A
C338        H343   1.084       .  S
C339        C340   1.396       .  A
C339       C1040   1.491       .  S
C340        C341   1.397       .  A
C340        H344   1.084       .  S
C341        C342   1.402       .  A
C341        C939   1.476       .  S
C342        H345   1.083       .  S
C346        C347   1.410       .  A
C346        C351   1.407       .  A
C346        C925   1.497       .  S
C347        C348   1.407       .  A
C347        H352   1.083       .  S
C348        C349   1.395       .  A
C348       C1474   1.479       .  S
C349        C350   1.392       .  A
C349        H353   1.085       .  S
C350        C351   1.403       .  A
C350       C1012   1.481       .  S
C351        H354   1.084       .  S
C355        C356   1.415       .  A
C355        C360   1.407       .  A
C355        C911   1.501       .  S
C356        C357   1.413       .  A
C356        H361   1.083       .  S
C357        C358   1.400       .  A
C357       C1656   1.492       .  S
C358        C359   1.393       .  A
C358        H362   1.085       .  S
C359        C360   1.400       .  A
C359        C984   1.481       .  S
C360        H363   1.084       .  S
O364       Mg366   2.098   1_655  S
O364       Mg372   2.135       .  S
O364        C399   1.235       .  S
C365        H404   1.082       .  S
C365        O378   1.242       .  S
C365        O402   1.277   1_554  A
Mg366       O395   2.140       .  S
Mg366       O410   2.278       .  S
Mg366       O406   2.225       .  S
Mg366       O377   2.303   1_455  S
O367       Mg409   2.111   1_554  S
O367       Mg392   2.096       .  S
O367        C388   1.236       .  S
O368        C399   1.268       .  A
O368       Mg392   2.293       .  S
C369       C1292   1.496   1_554  S
C369        O371   1.274       .  A
C369        O383   1.272   1_554  A
O370        C398   1.276       .  A
O370       Mg372   2.311   1_455  S
O371       Mg403   2.294       .  S
Mg372       O378   2.165       .  S
Mg372       O386   2.307       .  S
Mg372       O374   2.333       .  S
C373        C869   1.503       .  S
C373        O411   1.262       .  A
C373        O379   1.277       .  A
O374        C381   1.277       .  A
H375        C388   1.083       .  S
C376        H401   1.083       .  S
C376        O390   1.240   1_455  S
C376        O391   1.276       .  A
O377        C400   1.270       .  A
O378       Mg392   2.137       .  S
O379       Mg409   2.359       .  S
C380        C914   1.495       .  S
C380        O393   1.276       .  A
C380        O385   1.273       .  A
C381        C886   1.474       .  S
C381        O408   1.266       .  A
Mg382       O389   2.124   1_655  S
Mg382       O390   2.115   1_554  S
Mg382       O383   2.283   1_654  S
Mg382       O384   2.310       .  S
Mg382       O411   2.236   1_554  S
O384        C388   1.271       .  A
O385       Mg392   2.296   1_556  S
O386        C405   1.275   1_655  A
O387        C407   1.279       .  A
O387       Mg403   2.343       .  S
O389       Mg403   2.138       .  S
O389        C400   1.235   1_455  S
O390       Mg409   2.179       .  S
O391       Mg403   2.323   1_556  S
Mg392       O408   2.217       .  S
O393       Mg409   2.311       .  S
H394        C399   1.082       .  S
O395       Mg403   2.157       .  S
O395        C398   1.241       .  S
H396        C398   1.082       .  S
H397        C400   1.082       .  S
O402       Mg409   2.319       .  S
C405       C1138   1.502       .  S
C405        O410   1.273       .  A
O406        C407   1.267       .  A
C407        C900   1.480       .  S
C412        C413   1.407       .  A
C412        C417   1.406       .  A
C412        C970   1.499       .  S
C413        C414   1.405       .  A
C413        H418   1.083       .  S
C414        C415   1.397       .  A
C414       C1558   1.476       .  S
C415        C416   1.395       .  A
C415        H419   1.084       .  S
C416        C417   1.405       .  A
C416        C883   1.493       .  S
C417        H420   1.083       .  S
C421        C422   1.413       .  A
C421        C426   1.410       .  A
C421       C1194   1.504       .  S
C422        C423   1.406       .  A
C422        H427   1.083       .  S
C423        C424   1.396       .  A
C423       C1544   1.481       .  S
C424        C425   1.392       .  A
C424        H428   1.085       .  S
C425        C426   1.402       .  A
C425        C897   1.481       .  S
C426        H429   1.084       .  S
C430        C431   1.403       .  A
C430        C435   1.402       .  A
C430       C1334   1.484       .  S
C431        C432   1.407       .  A
C431        H436   1.083       .  S
C432        C433   1.411       .  A
C432       C1443   1.509       .  S
C433        C434   1.408       .  A
C433        H437   1.076       .  S
C434        C435   1.405       .  A
C434        C872   1.518       .  S
C435        H438   1.081       .  S
O439       Mg441   2.130       .  S
O439       Mg447   2.150       .  S
O439        C474   1.240   1_556  S
C440        H479   1.082       .  S
C440        O453   1.237       .  S
C440        O477   1.271       .  A
Mg441       O470   2.127       .  S
Mg441       O485   2.282       .  S
Mg441       O481   2.225   1_545  S
Mg441       O452   2.299   1_545  S
O442       Mg484   2.148       .  S
O442       Mg467   2.151       .  S
O442        C463   1.241       .  S
O443        C474   1.274       .  A
O443       Mg467   2.302       .  S
C444        C816   1.478       .  S
C444        O446   1.273       .  A
C444        O458   1.273       .  A
O445        C473   1.269       .  A
O445       Mg447   2.284       .  S
O446       Mg478   2.264       .  S
Mg447       O453   2.120       .  S
Mg447       O461   2.286       .  S
Mg447       O449   2.334   1_556  S
C448       C1250   1.505       .  S
C448        O486   1.271       .  A
C448        O454   1.280   1_565  A
O449        C456   1.278       .  A
H450        C463   1.082       .  S
C451        H476   1.082       .  S
C451        O465   1.236       .  S
C451        O466   1.270       .  A
O452        C475   1.274       .  A
O453       Mg467   2.117   1_556  S
O454       Mg484   2.344       .  S
C455        C858   1.494       .  S
C455        O468   1.274       .  A
C455        O460   1.274       .  A
C456        C928   1.510       .  S
C456        O483   1.273       .  A
Mg457       O464   2.142   1_554  S
Mg457       O465   2.125   1_564  S
Mg457       O458   2.290   1_554  S
Mg457       O459   2.310       .  S
Mg457       O486   2.254       .  S
O459        C463   1.276   1_565  A
O460       Mg467   2.294       .  S
O461        C480   1.274       .  A
O462        C482   1.280       .  A
O462       Mg478   2.346       .  S
O464       Mg478   2.156       .  S
O464        C475   1.240       .  S
O465       Mg484   2.121   1_556  S
O466       Mg478   2.301   1_545  S
Mg467       O483   2.265       .  S
O468       Mg484   2.275       .  S
H469        C474   1.082       .  S
O470       Mg478   2.108   1_545  S
O470        C473   1.235       .  S
H471        C473   1.082       .  S
H472        C475   1.082       .  S
O477       Mg484   2.305   1_556  S
C480        C841   1.479       .  S
C480        O485   1.270       .  A
O481        C482   1.268       .  A
C482        C827   1.487       .  S
C487        C488   1.412       .  A
C487        C492   1.407       .  A
C487        C799   1.498       .  S
C488        C489   1.413       .  A
C488        H493   1.083       .  S
C489        C490   1.399       .  A
C489       C1432   1.494       .  S
C490        C491   1.397       .  A
C490        H494   1.084       .  S
C491        C492   1.406       .  A
C491        C844   1.493       .  S
C492        H495   1.084       .  S
C496        C497   1.425       .  A
C496        C501   1.415       .  A
C496        C998   1.524       .  S
C497        C498   1.420       .  A
C497        H502   1.082       .  S
C498        C499   1.401       .  A
C498       C1516   1.505       .  S
C499        C500   1.385       .  A
C499        H503   1.084       .  S
C500        C501   1.399       .  A
C500        C855   1.488       .  S
C501        H504   1.081       .  S
C505        C506   1.415       .  A
C505        C510   1.404       .  A
C505       C1306   1.505       .  S
C506        C507   1.419       .  A
C506        H511   1.074       .  S
C507        C508   1.407       .  A
C507       C1404   1.523       .  S
C508        C509   1.393       .  A
C508        H512   1.081       .  S
C509        C510   1.394       .  A
C509        C813   1.480       .  S
C510        H513   1.084       .  S
O514       Mg516   2.102       .  S
O514       Mg522   2.124       .  S
O514        C549   1.234       .  S
C515        H554   1.082       .  S
C515        O528   1.241       .  S
C515        O552   1.276       .  A
Mg516       O545   2.132       .  S
Mg516       O560   2.268       .  S
Mg516       O556   2.204       .  S
Mg516       O527   2.291       .  S
O517       Mg559   2.131       .  S
O517       Mg542   2.102       .  S
O517        C538   1.236       .  S
O518        C549   1.267       .  A
O518       Mg542   2.288       .  S
C519        C956   1.495       .  S
C519        O521   1.275       .  A
C519        O533   1.273       .  A
O520        C548   1.276       .  A
O520       Mg522   2.321       .  S
O521       Mg553   2.288       .  S
Mg522       O528   2.169       .  S
Mg522       O536   2.329       .  S
Mg522       O524   2.353       .  S
C523        C743   1.477       .  S
C523        O561   1.269       .  A
C523        O529   1.277       .  A
O524        C531   1.280       .  A
H525        C538   1.082       .  S
C526        H551   1.082       .  S
C526        O540   1.238       .  S
C526        O541   1.273       .  A
O527        C550   1.269       .  A
O528       Mg542   2.149       .  S
O529       Mg559   2.330       .  S
C530        C760   1.504       .  S
C530        O543   1.274       .  A
C530        O535   1.272       .  A
C531        C771   1.474       .  S
C531        O558   1.267       .  A
Mg532       O539   2.109       .  S
Mg532       O540   2.142       .  S
Mg532       O533   2.280       .  S
Mg532       O534   2.291       .  S
Mg532       O561   2.226       .  S
O534        C538   1.269       .  A
O535       Mg542   2.281       .  S
O536        C555   1.278       .  A
O537        C557   1.277       .  A
O537       Mg553   2.334       .  S
O539       Mg553   2.142       .  S
O539        C550   1.236       .  S
O540       Mg559   2.150       .  S
O541       Mg553   2.304       .  S
Mg542       O558   2.215       .  S
O543       Mg559   2.299       .  S
H544        C549   1.082       .  S
O545       Mg553   2.156       .  S
O545        C548   1.241       .  S
H546        C548   1.082       .  S
H547        C550   1.082       .  S
O552       Mg559   2.314       .  S
C555       C1152   1.505       .  S
C555        O560   1.270       .  A
O556        C557   1.265       .  A
C557        C788   1.478       .  S
C562        C563   1.405       .  A
C562        C567   1.404       .  A
C562        C729   1.487       .  S
C563        C564   1.406       .  A
C563        H568   1.083       .  S
C564        C565   1.403       .  A
C564       C1586   1.488       .  S
C565        C566   1.396       .  A
C565        H569   1.084       .  S
C566        C567   1.405       .  A
C566        C774   1.492       .  S
C567        H570   1.084       .  S
C571        C572   1.415       .  A
C571        C576   1.411       .  A
C571       C1026   1.507       .  S
C572        C573   1.411       .  A
C572        H577   1.083       .  S
C573        C574   1.397       .  A
C573       C1415   1.486       .  S
C574        C575   1.387       .  A
C574        H578   1.085       .  S
C575        C576   1.399       .  A
C575        C746   1.478       .  S
C576        H579   1.084       .  S
C580        C581   1.417       .  A
C580        C585   1.413       .  A
C580       C1222   1.513       .  S
C581        C582   1.406       .  A
C581        H586   1.082       .  S
C582        C583   1.394       .  A
C582       C1457   1.478       .  S
C583        C584   1.387       .  A
C583        H587   1.085       .  S
C584        C585   1.402       .  A
C584        C785   1.478       .  S
C585        H588   1.082       .  S
O589       Mg591   2.098   1_545  S
O589       Mg597   2.134       .  S
O589        C624   1.236   1_545  S
C590        H629   1.082       .  S
C590        O603   1.240       .  S
C590        O627   1.275       .  A
Mg591       O620   2.134       .  S
Mg591       O635   2.300   1_565  S
Mg591       O631   2.230       .  S
Mg591       O602   2.297       .  S
O592       Mg634   2.138       .  S
O592       Mg617   2.112   1_565  S
O592        C613   1.234       .  S
O593        C624   1.268       .  A
O593       Mg617   2.284   1_565  S
C594        C732   1.497       .  S
C594        O596   1.273       .  A
C594        O608   1.269       .  A
O595        C623   1.273       .  A
O595       Mg597   2.302       .  S
O596       Mg628   2.293       .  S
Mg597       O603   2.167       .  S
Mg597       O611   2.317       .  S
Mg597       O599   2.331       .  S
C598        C715   1.481       .  S
C598        O636   1.266       .  A
C598        O604   1.280       .  A
O599        C606   1.279       .  A
H600        C613   1.082       .  S
C601        H626   1.082       .  S
C601        O615   1.242       .  S
C601        O616   1.277       .  A
O602        C625   1.271       .  A
O603       Mg617   2.149       .  S
O604       Mg634   2.346       .  S
C605       C1054   1.495       .  S
C605        O618   1.275   1_545  A
C605        O610   1.273       .  A
C606        C701   1.481       .  S
C606        O633   1.269       .  A
Mg607       O614   2.104       .  S
Mg607       O615   2.142       .  S
Mg607       O608   2.262       .  S
Mg607       O609   2.294       .  S
Mg607       O636   2.216       .  S
O609        C613   1.268       .  A
O610       Mg617   2.278       .  S
O611        C630   1.279       .  A
O612        C632   1.276       .  A
O612       Mg628   2.327       .  S
O614       Mg628   2.132       .  S
O614        C625   1.236       .  S
O615       Mg634   2.155       .  S
O616       Mg628   2.317       .  S
Mg617       O633   2.215       .  S
O618       Mg634   2.303       .  S
H619        C624   1.082       .  S
O620       Mg628   2.146       .  S
O620        C623   1.239   1_565  S
H621        C623   1.082       .  S
H622        C625   1.082       .  S
O627       Mg634   2.314   1_545  S
C630        C802   1.505       .  S
C630        O635   1.276       .  A
O631        C632   1.268       .  A
C632        C687   1.473       .  S
C637        C638   1.409       .  A
C637        C642   1.405       .  A
C637        C757   1.490       .  S
C638        C639   1.409       .  A
C638        H643   1.083       .  S
C639        C640   1.399       .  A
C639       C1628   1.487       .  S
C640        C641   1.394       .  A
C640        H644   1.085       .  S
C641        C642   1.403       .  A
C641        C718   1.482       .  S
C642        H645   1.084       .  S
C646        C647   1.410       .  A
C646        C651   1.403       .  A
C646       C1093   1.488       .  S
C647        C648   1.403       .  A
C647        H652   1.084       .  S
C648        C649   1.394       .  A
C648        C704   1.488       .  S
C649        C650   1.399       .  A
C649        H653   1.085       .  S
C650        C651   1.403       .  A
C650        C673   1.474       .  S
C651        H654   1.083       .  S
C655        C656   1.414       .  A
C655        C660   1.398       .  A
C655        C830   1.491       .  S
C656        C657   1.422       .  A
C656        H661   1.079       .  S
C657        C658   1.410       .  A
C657       C1670   1.520       .  S
C658        C659   1.389       .  A
C658        H662   1.081       .  S
C659        C660   1.389       .  A
C659        C690   1.477       .  S
C660        H663   1.084       .  S
C664        C665   1.396       .  A
C664        C669   1.399       .  A
C664        C676   1.476       .  S
C665        C666   1.403       .  A
C665        H670   1.084       .  S
C666        C667   1.403       .  A
C666       C1278   1.487       .  S
C667        C668   1.405       .  A
C667        H671   1.084       .  S
C668        C669   1.399       .  A
C668        C942   1.485       .  S
C669        H672   1.084       .  S
C673        C674   1.410       .  A
C673        C678   1.411       .  A
C674        C675   1.406       .  A
C674        C679   1.451       .  S
C675        C676   1.411       .  A
C675        C682   1.451       .  S
C676        C677   1.410       .  A
C677        C678   1.407       .  A
C677        C680   1.451       .  S
C678        C681   1.451       .  S
C679        N686   1.157       .  T
C680        N685   1.157       .  T
C681        N683   1.157       .  T
C682        N684   1.157       .  T
C687        C688   1.417       .  A
C687        C692   1.407       .  A
C688        C689   1.410       .  A
C688        C693   1.448       .  S
C689        C690   1.403       .  A
C689        C696   1.451       .  S
C690        C691   1.416       .  A
C691        C692   1.406       .  A
C691        C694   1.452       .  S
C692        C695   1.451       .  S
C693        N700   1.157       .  T
C694        N699   1.157       .  T
C695        N697   1.157       .  T
C696        N698   1.157       .  T
C701        C702   1.412       .  A
C701        C706   1.413       .  A
C702        C703   1.406       .  A
C702        C707   1.453       .  S
C703        C704   1.412       .  A
C703        C710   1.447       .  S
C704        C705   1.415       .  A
C705        C706   1.412       .  A
C705        C708   1.451       .  S
C706        C709   1.451       .  S
C707        N714   1.157       .  T
C708        N713   1.157       .  T
C709        N711   1.157       .  T
C710        N712   1.156       .  T
C715        C716   1.414       .  A
C715        C720   1.415       .  A
C716        C717   1.410       .  A
C716        C721   1.451       .  S
C717        C718   1.411       .  A
C717        C724   1.451       .  S
C718        C719   1.410       .  A
C719        C720   1.409       .  A
C719        C722   1.451       .  S
C720        C723   1.451       .  S
C721        N728   1.157       .  T
C722        N727   1.157       .  T
C723        N725   1.157       .  T
C724        N726   1.157       .  T
C729        C730   1.412       .  A
C729        C734   1.408       .  A
C730        C731   1.415       .  A
C730        C735   1.450       .  S
C731        C732   1.417       .  A
C731        C738   1.450       .  S
C732        C733   1.420       .  A
C733        C734   1.408       .  A
C733        C736   1.453       .  S
C734        C737   1.450       .  S
C735        N742   1.157       .  T
C736        N741   1.157       .  T
C737        N739   1.157       .  T
C738        N740   1.157       .  T
C743        C744   1.412       .  A
C743        C748   1.415       .  A
C744        C745   1.406       .  A
C744        C749   1.451       .  S
C745        C746   1.410       .  A
C745        C752   1.451       .  S
C746        C747   1.408       .  A
C747        C748   1.410       .  A
C747        C750   1.451       .  S
C748        C751   1.450       .  S
C749        N756   1.157       .  T
C750        N755   1.157       .  T
C751        N753   1.157       .  T
C752        N754   1.157       .  T
C757        C758   1.411       .  A
C757        C762   1.409       .  A
C758        C759   1.417       .  A
C758        C763   1.451       .  S
C759        C760   1.420       .  A
C759        C766   1.450       .  S
C760        C761   1.422       .  A
C761        C762   1.412       .  A
C761        C764   1.453       .  S
C762        C765   1.451       .  S
C763        N770   1.157       .  T
C764        N769   1.158       .  T
C765        N767   1.157       .  T
C766        N768   1.158       .  T
C771        C772   1.412       .  A
C771        C776   1.407       .  A
C772        C773   1.405       .  A
C772        C777   1.452       .  S
C773        C774   1.412       .  A
C773        C780   1.451       .  S
C774        C775   1.419       .  A
C775        C776   1.414       .  A
C775        C778   1.450       .  S
C776        C779   1.450       .  S
C777        N784   1.157       .  T
C778        N783   1.157       .  T
C779        N781   1.157       .  T
C780        N782   1.157       .  T
C785        C786   1.409       .  A
C785        C790   1.410       .  A
C786        C787   1.412       .  A
C786        C791   1.450       .  S
C787        C788   1.415       .  A
C787        C794   1.450       .  S
C788        C789   1.413       .  A
C789        C790   1.404       .  A
C789        C792   1.452       .  S
C790        C793   1.452       .  S
C791        N798   1.157       .  T
C792        N797   1.157       .  T
C793        N795   1.157       .  T
C794        N796   1.157       .  T
C799        C800   1.410       .  A
C799        C804   1.414       .  A
C800        C801   1.415       .  A
C800        C805   1.450       .  S
C801        C802   1.421       .  A
C801        C808   1.452       .  S
C802        C803   1.417       .  A
C803        C804   1.418       .  A
C803        C806   1.450       .  S
C804        C807   1.450       .  S
C805        N812   1.157       .  T
C806        N811   1.157       .  T
C807        N809   1.157       .  T
C808        N810   1.157       .  T
C813        C814   1.414       .  A
C813        C818   1.406       .  A
C814        C815   1.409       .  A
C814        C819   1.451       .  S
C815        C816   1.409       .  A
C815        C822   1.450       .  S
C816        C817   1.417       .  A
C817        C818   1.409       .  A
C817        C820   1.451       .  S
C818        C821   1.451       .  S
C819        N826   1.157       .  T
C820        N825   1.157   1_565  T
C821        N823   1.157   1_565  T
C822        N824   1.157       .  T
C827        C828   1.416       .  A
C827        C832   1.412       .  A
C828        C829   1.408       .  A
C828        C833   1.454       .  S
C829        C830   1.413       .  A
C829        C836   1.452       .  S
C830        C831   1.415       .  A
C831        C832   1.415       .  A
C831        C834   1.450       .  S
C832        C835   1.450       .  S
C833        N840   1.158   1_565  T
C834        N839   1.157       .  T
C835        N837   1.157       .  T
C836        N838   1.157       .  T
C841        C842   1.413       .  A
C841        C846   1.408       .  A
C842        C843   1.408       .  A
C842        C847   1.451       .  S
C843        C844   1.412       .  A
C843        C850   1.451       .  S
C844        C845   1.419       .  A
C845        C846   1.414       .  A
C845        C848   1.451       .  S
C846        C849   1.450       .  S
C847        N854   1.157       .  T
C848        N853   1.157       .  T
C849        N851   1.157       .  T
C850        N852   1.157       .  T
C855        C856   1.408       .  A
C855        C860   1.414       .  A
C856        C857   1.414       .  A
C856        C861   1.450       .  S
C857        C858   1.422       .  A
C857        C864   1.451       .  S
C858        C859   1.416       .  A
C859        C860   1.409       .  A
C859        C862   1.452       .  S
C860        C863   1.452       .  S
C861        N868   1.157       .  T
C862        N867   1.157       .  T
C863        N865   1.157       .  T
C864        N866   1.157       .  T
C869        C870   1.421       .  A
C869        C874   1.412       .  A
C870        C871   1.410       .  A
C870        C875   1.457       .  S
C871        C872   1.427       .  A
C871        C878   1.452       .  S
C872        C873   1.422       .  A
C873        C874   1.414       .  A
C873        C876   1.451       .  S
C874        C877   1.447       .  S
C875        N882   1.158   1_556  T
C876        N881   1.157       .  T
C877        N879   1.156       .  T
C878        N880   1.157       .  T
C883        C884   1.412       .  A
C883        C888   1.424       .  A
C884        C885   1.404       .  A
C884        C889   1.453       .  S
C885        C886   1.414       .  A
C885        C892   1.452       .  S
C886        C887   1.405       .  A
C887        C888   1.412       .  A
C887        C890   1.451       .  S
C888        C891   1.451       .  S
C889        N896   1.157       .  T
C890        N895   1.157       .  T
C891        N893   1.157       .  T
C892        N894   1.157       .  T
C897        C898   1.410       .  A
C897        C902   1.410       .  A
C898        C899   1.409       .  A
C898        C903   1.451       .  S
C899        C900   1.413       .  A
C899        C906   1.450       .  S
C900        C901   1.414       .  A
C901        C902   1.410       .  A
C901        C904   1.451       .  S
C902        C905   1.451       .  S
C903        N910   1.157       .  T
C904        N909   1.157       .  T
C905        N907   1.157       .  T
C906        N908   1.157       .  T
C911        C912   1.417       .  A
C911        C916   1.414       .  A
C912        C913   1.415       .  A
C912        C917   1.452       .  S
C913        C914   1.412       .  A
C913        C920   1.447       .  S
C914        C915   1.415       .  A
C915        C916   1.414       .  A
C915        C918   1.452       .  S
C916        C919   1.447       .  S
C917        N924   1.157       .  T
C918        N923   1.157       .  T
C919        N921   1.156       .  T
C920        N922   1.156       .  T
C925        C926   1.413       .  A
C925        C930   1.411       .  A
C926        C927   1.416       .  A
C926        C931   1.452       .  S
C927        C928   1.422       .  A
C927        C934   1.451   1_554  S
C928        C929   1.424       .  A
C929        C930   1.412       .  A
C929        C932   1.453       .  S
C930        C933   1.451       .  S
C931        N938   1.157       .  T
C932        N937   1.158       .  T
C933        N935   1.157       .  T
C934        N936   1.158       .  T
C939        C940   1.410       .  A
C939        C944   1.409       .  A
C940        C941   1.407       .  A
C940        C945   1.451       .  S
C941        C942   1.413       .  A
C941        C948   1.451       .  S
C942        C943   1.415       .  A
C943        C944   1.409       .  A
C943        C946   1.451       .  S
C944        C947   1.451       .  S
C945        N952   1.157       .  T
C946        N951   1.157       .  T
C947        N949   1.157       .  T
C948        N950   1.157       .  T
C953        C954   1.409       .  A
C953        C958   1.412       .  A
C954        C955   1.411       .  A
C954        C959   1.451       .  S
C955        C956   1.419       .  A
C955        C962   1.452       .  S
C956        C957   1.417       .  A
C957        C958   1.413       .  A
C957        C960   1.451       .  S
C958        C961   1.450       .  S
C959        N966   1.157       .  T
C960        N965   1.158       .  T
C961        N963   1.157       .  T
C962        N964   1.157       .  T
C967        C968   1.416       .  A
C967        C972   1.422       .  A
C968        C969   1.417       .  A
C968        C973   1.450       .  S
C969        C970   1.417       .  A
C969        C976   1.450       .  S
C970        C971   1.414       .  A
C971        C972   1.408       .  A
C971        C974   1.454       .  S
C972        C975   1.454       .  S
C973        N980   1.157       .  T
C974        N979   1.157       .  T
C975        N977   1.158       .  T
C976        N978   1.157       .  T
C981        C982   1.414       .  A
C981        C986   1.413       .  A
C982        C983   1.410       .  A
C982        C987   1.451       .  S
C983        C984   1.409       .  A
C983        C990   1.450       .  S
C984        C985   1.411       .  A
C985        C986   1.410       .  A
C985        C988   1.451       .  S
C986        C989   1.451       .  S
C987        N994   1.157       .  T
C988        N993   1.157       .  T
C989        N991   1.157       .  T
C990        N992   1.157       .  T
C995        C996   1.410       .  A
C995       C1000   1.407       .  A
C996        C997   1.411       .  A
C996       C1001   1.455       .  S
C997        C998   1.427       .  A
C997       C1004   1.451       .  S
C998        C999   1.427       .  A
C999       C1000   1.421       .  A
C999       C1002   1.444       .  S
C1000      C1003   1.452       .  S
C1001      N1008   1.157       .  T
C1002      N1007   1.155       .  T
C1003      N1005   1.157       .  T
C1004      N1006   1.157       .  T
C1009      C1010   1.415       .  A
C1009      C1014   1.414       .  A
C1010      C1011   1.407       .  A
C1010      C1015   1.452       .  S
C1011      C1012   1.410       .  A
C1011      C1018   1.452       .  S
C1012      C1013   1.411       .  A
C1013      C1014   1.411       .  A
C1013      C1016   1.451       .  S
C1014      C1017   1.451       .  S
C1015      N1022   1.157       .  T
C1016      N1021   1.157       .  T
C1017      N1019   1.157       .  T
C1018      N1020   1.157       .  T
C1023      C1024   1.417       .  A
C1023      C1028   1.419       .  A
C1024      C1025   1.421       .  A
C1024      C1029   1.450       .  S
C1025      C1026   1.419       .  A
C1025      C1032   1.450       .  S
C1026      C1027   1.417       .  A
C1027      C1028   1.408       .  A
C1027      C1030   1.453       .  S
C1028      C1031   1.455       .  S
C1029      N1036   1.157       .  T
C1030      N1035   1.157       .  T
C1031      N1033   1.158       .  T
C1032      N1034   1.157       .  T
C1037      C1038   1.414       .  A
C1037      C1042   1.407       .  A
C1038      C1039   1.405       .  A
C1038      C1043   1.452       .  S
C1039      C1040   1.411       .  A
C1039      C1046   1.452       .  S
C1040      C1041   1.421       .  A
C1041      C1042   1.414       .  A
C1041      C1044   1.451       .  S
C1042      C1045   1.450       .  S
C1043      N1050   1.157       .  T
C1044      N1049   1.157       .  T
C1045      N1047   1.157       .  T
C1046      N1048   1.157       .  T
C1051      C1052   1.411       .  A
C1051      C1056   1.415       .  A
C1052      C1053   1.409       .  A
C1052      C1057   1.449       .  S
C1053      C1054   1.416       .  A
C1053      C1060   1.452       .  S
C1054      C1055   1.416       .  A
C1055      C1056   1.417       .  A
C1055      C1058   1.450   1_545  S
C1056      C1059   1.450       .  S
C1057      N1064   1.157       .  T
C1058      N1063   1.157       .  T
C1059      N1061   1.157       .  T
C1060      N1062   1.157       .  T
C1065      C1066   1.417       .  A
C1065      C1070   1.414       .  A
C1066      C1067   1.414       .  A
C1066      C1071   1.451       .  S
C1067      C1068   1.413       .  A
C1067      C1074   1.450       .  S
C1068      C1069   1.417       .  A
C1069      C1070   1.405       .  A
C1069      C1072   1.454       .  S
C1070      C1073   1.454       .  S
C1071      N1078   1.157       .  T
C1072      N1077   1.157       .  T
C1073      N1075   1.157       .  T
C1074      N1076   1.157       .  T
C1079      C1080   1.410       .  A
C1079      C1084   1.415       .  A
C1080      C1081   1.404       .  A
C1080      C1085   1.453       .  S
C1081      C1082   1.415       .  A
C1081      C1088   1.452       .  S
C1082      C1083   1.408       .  A
C1083      C1084   1.412       .  A
C1083      C1086   1.449       .  S
C1084      C1087   1.449       .  S
C1085      N1092   1.157       .  T
C1086      N1091   1.157       .  T
C1087      N1089   1.157       .  T
C1088      N1090   1.157       .  T
C1093      C1094   1.402       .  A
C1093      C1098   1.413       .  A
C1094      C1095   1.397       .  A
C1094      C1099   1.449       .  S
C1095      C1096   1.420       .  A
C1095      C1102   1.451       .  S
C1096      C1097   1.422       .  A
C1097      C1098   1.420       .  A
C1097      C1100   1.449       .  S
C1098      C1101   1.449       .  S
C1099      N1106   1.156       .  T
C1100      N1105   1.157       .  T
C1101      N1103   1.157       .  T
C1102      N1104   1.157       .  T
C1107      C1108   1.412       .  A
C1107      C1112   1.410       .  A
C1108      C1109   1.412       .  A
C1108      C1113   1.450       .  S
C1109      C1110   1.414       .  A
C1109      C1116   1.451       .  S
C1110      C1111   1.415       .  A
C1111      C1112   1.410       .  A
C1111      C1114   1.451       .  S
C1112      C1115   1.451       .  S
C1113      N1120   1.157       .  T
C1114      N1119   1.157       .  T
C1115      N1117   1.157       .  T
C1116      N1118   1.157       .  T
C1121      C1122   1.417       .  A
C1121      C1126   1.412       .  A
C1122      C1123   1.419       .  A
C1122      C1127   1.450       .  S
C1123      C1124   1.418       .  A
C1123      C1130   1.450       .  S
C1124      C1125   1.423       .  A
C1125      C1126   1.408       .  A
C1125      C1128   1.454       .  S
C1126      C1129   1.454       .  S
C1127      N1134   1.157       .  T
C1128      N1133   1.157   1_655  T
C1129      N1131   1.157       .  T
C1130      N1132   1.157       .  T
C1135      C1136   1.413       .  A
C1135      C1140   1.410       .  A
C1136      C1137   1.419       .  A
C1136      C1141   1.450       .  S
C1137      C1138   1.419       .  A
C1137      C1144   1.450   1_455  S
C1138      C1139   1.419       .  A
C1139      C1140   1.409       .  A
C1139      C1142   1.452       .  S
C1140      C1143   1.451       .  S
C1141      N1148   1.157       .  T
C1142      N1147   1.157       .  T
C1143      N1145   1.157       .  T
C1144      N1146   1.158       .  T
C1149      C1150   1.412       .  A
C1149      C1154   1.416       .  A
C1150      C1151   1.409       .  A
C1150      C1155   1.452       .  S
C1151      C1152   1.423       .  A
C1151      C1158   1.454       .  S
C1152      C1153   1.417       .  A
C1153      C1154   1.420       .  A
C1153      C1156   1.450       .  S
C1154      C1157   1.449       .  S
C1155      N1162   1.157       .  T
C1156      N1161   1.157       .  T
C1157      N1159   1.157       .  T
C1158      N1160   1.158       .  T
C1163      C1164   1.415       .  A
C1163      C1168   1.412       .  A
C1164      C1165   1.410       .  A
C1164      C1169   1.455       .  S
C1165      C1166   1.416       .  A
C1165      C1172   1.450       .  S
C1166      C1167   1.418       .  A
C1167      C1168   1.418       .  A
C1167      C1170   1.450       .  S
C1168      C1171   1.450       .  S
C1169      N1176   1.158       .  T
C1170      N1175   1.157       .  T
C1171      N1173   1.157       .  T
C1172      N1174   1.157       .  T
C1177      C1178   1.412       .  A
C1177      C1182   1.406       .  A
C1178      C1179   1.408       .  A
C1178      C1183   1.451       .  S
C1179      C1180   1.415       .  A
C1179      C1186   1.453       .  S
C1180      C1181   1.421       .  A
C1181      C1182   1.412       .  A
C1181      C1184   1.450       .  S
C1182      C1185   1.451       .  S
C1183      N1190   1.157       .  T
C1184      N1189   1.157       .  T
C1185      N1187   1.157       .  T
C1186      N1188   1.157       .  T
C1191      C1192   1.419       .  A
C1191      C1196   1.419       .  A
C1192      C1193   1.413       .  A
C1192      C1197   1.452       .  S
C1193      C1194   1.416       .  A
C1193      C1200   1.452       .  S
C1194      C1195   1.417       .  A
C1195      C1196   1.416       .  A
C1195      C1198   1.452       .  S
C1196      C1199   1.451   1_455  S
C1197      N1204   1.157       .  T
C1198      N1203   1.157       .  T
C1199      N1201   1.158       .  T
C1200      N1202   1.157       .  T
C1205      C1206   1.429       .  A
C1205      C1210   1.422       .  A
C1206      C1207   1.414       .  A
C1206      C1211   1.452       .  S
C1207      C1208   1.412       .  A
C1207      C1214   1.454       .  S
C1208      C1209   1.416       .  A
C1209      C1210   1.414       .  A
C1209      C1212   1.451       .  S
C1210      C1213   1.453       .  S
C1211      N1218   1.157       .  T
C1212      N1217   1.157       .  T
C1213      N1215   1.158       .  T
C1214      N1216   1.158       .  T
C1219      C1220   1.409       .  A
C1219      C1224   1.406       .  A
C1220      C1221   1.418       .  A
C1220      C1225   1.450       .  S
C1221      C1222   1.424       .  A
C1221      C1228   1.451       .  S
C1222      C1223   1.426       .  A
C1223      C1224   1.409       .  A
C1223      C1226   1.451       .  S
C1224      C1227   1.455       .  S
C1225      N1232   1.157       .  T
C1226      N1231   1.157       .  T
C1227      N1229   1.157       .  T
C1228      N1230   1.158       .  T
C1233      C1234   1.418       .  A
C1233      C1238   1.409       .  A
C1234      C1235   1.410       .  A
C1234      C1239   1.451       .  S
C1235      C1236   1.406       .  A
C1235      C1242   1.450       .  S
C1236      C1237   1.415       .  A
C1237      C1238   1.407       .  A
C1237      C1240   1.451       .  S
C1238      C1241   1.451       .  S
C1239      N1246   1.157       .  T
C1240      N1245   1.157       .  T
C1241      N1243   1.157       .  T
C1242      N1244   1.157       .  T
C1247      C1248   1.414       .  A
C1247      C1252   1.420       .  A
C1248      C1249   1.416       .  A
C1248      C1253   1.451       .  S
C1249      C1250   1.422       .  A
C1249      C1256   1.452       .  S
C1250      C1251   1.417       .  A
C1251      C1252   1.414       .  A
C1251      C1254   1.452   1_565  S
C1252      C1255   1.453   1_565  S
C1253      N1260   1.157       .  T
C1254      N1259   1.157       .  T
C1255      N1257   1.157       .  T
C1256      N1258   1.157       .  T
C1261      C1262   1.412       .  A
C1261      C1266   1.409       .  A
C1262      C1263   1.416       .  A
C1262      C1267   1.450       .  S
C1263      C1264   1.418       .  A
C1263      C1270   1.450   1_655  S
C1264      C1265   1.419       .  A
C1265      C1266   1.410       .  A
C1265      C1268   1.452       .  S
C1266      C1269   1.451       .  S
C1267      N1274   1.157   1_655  T
C1268      N1273   1.157       .  T
C1269      N1271   1.157       .  T
C1270      N1272   1.157       .  T
C1275      C1276   1.409       .  A
C1275      C1280   1.410       .  A
C1276      C1277   1.406       .  A
C1276      C1281   1.452       .  S
C1277      C1278   1.415       .  A
C1277      C1284   1.452       .  S
C1278      C1279   1.415       .  A
C1279      C1280   1.411       .  A
C1279      C1282   1.451       .  S
C1280      C1283   1.451       .  S
C1281      N1288   1.157       .  T
C1282      N1287   1.157       .  T
C1283      N1285   1.157       .  T
C1284      N1286   1.157       .  T
C1289      C1290   1.413       .  A
C1289      C1294   1.413       .  A
C1290      C1291   1.415   1_556  A
C1290      C1295   1.451   1_556  S
C1291      C1292   1.417   1_554  A
C1291      C1298   1.451       .  S
C1292      C1293   1.418       .  A
C1293      C1294   1.411       .  A
C1293      C1296   1.452       .  S
C1294      C1297   1.452       .  S
C1295      N1302   1.157       .  T
C1296      N1301   1.157       .  T
C1297      N1299   1.157       .  T
C1298      N1300   1.157       .  T
C1303      C1304   1.415       .  A
C1303      C1308   1.420       .  A
C1304      C1305   1.413       .  A
C1304      C1309   1.452   1_565  S
C1305      C1306   1.422       .  A
C1305      C1312   1.453   1_565  S
C1306      C1307   1.415       .  A
C1307      C1308   1.413       .  A
C1307      C1310   1.451       .  S
C1308      C1311   1.453       .  S
C1309      N1316   1.158       .  T
C1310      N1315   1.157       .  T
C1311      N1313   1.157       .  T
C1312      N1314   1.157       .  T
C1317      C1318   1.407       .  A
C1317      C1322   1.413       .  A
C1318      C1319   1.409       .  A
C1318      C1323   1.451       .  S
C1319      C1320   1.416       .  A
C1319      C1326   1.452       .  S
C1320      C1321   1.411       .  A
C1321      C1322   1.409       .  A
C1321      C1324   1.451       .  S
C1322      C1325   1.452       .  S
C1323      N1330   1.157       .  T
C1324      N1329   1.157       .  T
C1325      N1327   1.157       .  T
C1326      N1328   1.157   1_565  T
C1331      C1332   1.419       .  A
C1331      C1336   1.418       .  A
C1332      C1333   1.406       .  A
C1332      C1337   1.453       .  S
C1333      C1334   1.410       .  A
C1333      C1340   1.454       .  S
C1334      C1335   1.409       .  A
C1335      C1336   1.416       .  A
C1335      C1338   1.449       .  S
C1336      C1339   1.450   1_556  S
C1337      N1344   1.157   1_655  T
C1338      N1343   1.157       .  T
C1339      N1341   1.157       .  T
C1340      N1342   1.157       .  T
C1345      C1346   1.412       .  A
C1345      C1350   1.409       .  A
C1346      C1347   1.412       .  A
C1346      C1351   1.450       .  S
C1347      C1348   1.412       .  A
C1347      C1354   1.450       .  S
C1348      C1349   1.416       .  A
C1349      C1350   1.409       .  A
C1349      C1352   1.452       .  S
C1350      C1353   1.451       .  S
C1351      N1358   1.157       .  T
C1352      N1357   1.157   1_556  T
C1353      N1355   1.157       .  T
C1354      N1356   1.157       .  T
C1359      C1360   1.408       .  A
C1359      C1364   1.410       .  A
C1360      C1361   1.411       .  A
C1360      C1365   1.453       .  S
C1361      C1362   1.429       .  A
C1361      C1368   1.453       .  S
C1362      C1363   1.426       .  A
C1363      C1364   1.413       .  A
C1363      C1366   1.452   1_655  S
C1364      C1367   1.453   1_655  S
C1365      N1372   1.157       .  T
C1366      N1371   1.158       .  T
C1367      N1369   1.157       .  T
C1368      N1370   1.158       .  T
C1373      C1374   1.410       .  A
C1373      C1378   1.414       .  A
C1374      C1375   1.412       .  A
C1374      C1379   1.450       .  S
C1375      C1376   1.414       .  A
C1375      C1382   1.451       .  S
C1376      C1377   1.411       .  A
C1377      C1378   1.410       .  A
C1377      C1380   1.451       .  S
C1378      C1381   1.452       .  S
C1379      N1386   1.157       .  T
C1380      N1385   1.157       .  T
C1381      N1383   1.157   1_655  T
C1382      N1384   1.157       .  T
C1387      C1388   1.413       .  A
C1387      C1392   1.425       .  A
C1388      C1389   1.400       .  A
C1388      C1393   1.453       .  S
C1389      C1390   1.423       .  A
C1389      C1396   1.453       .  S
C1390      C1391   1.419       .  A
C1391      C1392   1.420       .  A
C1391      C1394   1.449       .  S
C1392      C1395   1.450       .  S
C1393      N1400   1.158       .  T
C1394      N1399   1.157       .  T
C1395      N1397   1.158       .  T
C1396      N1398   1.157       .  T
C1401      C1402   1.415       .  A
C1401      C1406   1.420       .  A
C1402      C1403   1.401       .  A
C1402      C1407   1.454       .  S
C1403      C1404   1.427       .  A
C1403      C1410   1.453       .  S
C1404      C1405   1.425       .  A
C1405      C1406   1.419       .  A
C1405      C1408   1.449       .  S
C1406      C1409   1.449       .  S
C1407      N1414   1.157       .  T
C1408      N1413   1.158       .  T
C1409      N1411   1.157       .  T
C1410      N1412   1.157       .  T
C1415      C1416   1.413       .  A
C1415      C1420   1.415       .  A
C1416      C1417   1.412       .  A
C1416      C1421   1.450       .  S
C1417      C1418   1.411       .  A
C1417      C1424   1.450       .  S
C1418      C1419   1.410       .  A
C1419      C1420   1.406       .  A
C1419      C1422   1.452       .  S
C1420      C1423   1.453       .  S
C1421      N1428   1.157       .  T
C1422      N1427   1.157       .  T
C1423      N1425   1.157       .  T
C1424      N1426   1.157       .  T
C1429      C1430   1.409       .  A
C1429      C1434   1.412       .  A
C1430      C1431   1.414       .  A
C1430      C1435   1.450       .  S
C1431      C1432   1.419       .  A
C1431      C1438   1.451       .  S
C1432      C1433   1.412       .  A
C1433      C1434   1.410       .  A
C1433      C1436   1.449       .  S
C1434      C1437   1.452       .  S
C1435      N1442   1.157       .  T
C1436      N1441   1.157       .  T
C1437      N1439   1.157       .  T
C1438      N1440   1.157       .  T
C1443      C1444   1.412       .  A
C1443      C1448   1.417       .  A
C1444      C1445   1.407       .  A
C1444      C1449   1.454       .  S
C1445      C1446   1.427       .  A
C1445      C1452   1.450       .  S
C1446      C1447   1.426       .  A
C1447      C1448   1.417       .  A
C1447      C1450   1.451       .  S
C1448      C1451   1.451       .  S
C1449      N1456   1.157       .  T
C1450      N1455   1.158       .  T
C1451      N1453   1.158       .  T
C1452      N1454   1.157       .  T
C1457      C1458   1.410       .  A
C1457      C1462   1.412       .  A
C1458      C1459   1.406       .  A
C1458      C1463   1.452       .  S
C1459      C1460   1.414       .  A
C1459      C1466   1.452       .  S
C1460      C1461   1.411       .  A
C1461      C1462   1.412       .  A
C1461      C1464   1.450       .  S
C1462      C1465   1.450       .  S
C1463      N1470   1.157       .  T
C1464      N1469   1.157       .  T
C1465      N1467   1.157       .  T
C1466      N1468   1.157       .  T
C1471      C1472   1.412       .  A
C1471      C1476   1.412       .  A
C1472      C1473   1.406       .  A
C1472      C1477   1.452       .  S
C1473      C1474   1.411       .  A
C1473      C1480   1.451       .  S
C1474      C1475   1.412       .  A
C1475      C1476   1.412       .  A
C1475      C1478   1.450       .  S
C1476      C1479   1.450       .  S
C1477      N1484   1.157       .  T
C1478      N1483   1.157       .  T
C1479      N1481   1.157       .  T
C1480      N1482   1.157       .  T
C1485      C1486   1.408       .  A
C1485      C1490   1.411       .  A
C1486      C1487   1.412       .  A
C1486      C1491   1.450       .  S
C1487      C1488   1.414       .  A
C1487      C1494   1.448       .  S
C1488      C1489   1.414       .  A
C1489      C1490   1.407       .  A
C1489      C1492   1.452       .  S
C1490      C1493   1.452       .  S
C1491      N1498   1.157       .  T
C1492      N1497   1.157       .  T
C1493      N1495   1.157       .  T
C1494      N1496   1.157       .  T
C1499      C1500   1.415       .  A
C1499      C1504   1.424       .  A
C1500      C1501   1.402       .  A
C1500      C1505   1.454       .  S
C1501      C1502   1.422       .  A
C1501      C1508   1.453       .  S
C1502      C1503   1.419       .  A
C1503      C1504   1.422       .  A
C1503      C1506   1.449       .  S
C1504      C1507   1.449       .  S
C1505      N1512   1.158       .  T
C1506      N1511   1.157       .  T
C1507      N1509   1.157       .  T
C1508      N1510   1.157       .  T
C1513      C1514   1.427       .  A
C1513      C1518   1.424       .  A
C1514      C1515   1.417       .  A
C1514      C1519   1.449       .  S
C1515      C1516   1.411       .  A
C1515      C1522   1.446       .  S
C1516      C1517   1.415       .  A
C1517      C1518   1.405       .  A
C1517      C1520   1.453       .  S
C1518      C1521   1.453       .  S
C1519      N1526   1.157       .  T
C1520      N1525   1.157       .  T
C1521      N1523   1.158       .  T
C1522      N1524   1.156       .  T
C1527      C1528   1.412       .  A
C1527      C1532   1.407       .  A
C1528      C1529   1.406       .  A
C1528      C1533   1.453       .  S
C1529      C1530   1.414       .  A
C1529      C1536   1.452       .  S
C1530      C1531   1.416       .  A
C1531      C1532   1.412       .  A
C1531      C1534   1.446       .  S
C1532      C1535   1.450       .  S
C1533      N1540   1.157       .  T
C1534      N1539   1.156       .  T
C1535      N1537   1.157       .  T
C1536      N1538   1.157       .  T
C1541      C1542   1.415       .  A
C1541      C1546   1.414       .  A
C1542      C1543   1.414       .  A
C1542      C1547   1.449       .  S
C1543      C1544   1.410       .  A
C1543      C1550   1.450       .  S
C1544      C1545   1.411       .  A
C1545      C1546   1.406       .  A
C1545      C1548   1.452       .  S
C1546      C1549   1.452       .  S
C1547      N1554   1.157       .  T
C1548      N1553   1.157       .  T
C1549      N1551   1.157       .  T
C1550      N1552   1.157       .  T
C1555      C1556   1.413       .  A
C1555      C1560   1.415       .  A
C1556      C1557   1.407       .  A
C1556      C1561   1.450       .  S
C1557      C1558   1.410       .  A
C1557      C1564   1.452       .  S
C1558      C1559   1.408       .  A
C1559      C1560   1.410       .  A
C1559      C1562   1.451       .  S
C1560      C1563   1.450       .  S
C1561      N1568   1.157       .  T
C1562      N1567   1.157       .  T
C1563      N1565   1.157       .  T
C1564      N1566   1.157       .  T
C1569      C1570   1.416       .  A
C1569      C1574   1.419       .  A
C1570      C1571   1.401       .  A
C1570      C1575   1.453       .  S
C1571      C1572   1.422       .  A
C1571      C1578   1.454       .  S
C1572      C1573   1.421       .  A
C1573      C1574   1.416       .  A
C1573      C1576   1.450       .  S
C1574      C1577   1.449       .  S
C1575      N1582   1.158       .  T
C1576      N1581   1.158       .  T
C1577      N1579   1.157       .  T
C1578      N1580   1.158       .  T
C1583      C1584   1.406       .  A
C1583      C1588   1.411       .  A
C1584      C1585   1.410       .  A
C1584      C1589   1.450       .  S
C1585      C1586   1.416       .  A
C1585      C1592   1.447       .  S
C1586      C1587   1.415       .  A
C1587      C1588   1.406       .  A
C1587      C1590   1.453       .  S
C1588      C1591   1.452       .  S
C1589      N1596   1.157       .  T
C1590      N1595   1.157       .  T
C1591      N1593   1.157       .  T
C1592      N1594   1.156       .  T
C1597      C1598   1.414       .  A
C1597      C1602   1.423       .  A
C1598      C1599   1.400       .  A
C1598      C1603   1.454       .  S
C1599      C1600   1.423       .  A
C1599      C1606   1.454       .  S
C1600      C1601   1.421       .  A
C1601      C1602   1.421       .  A
C1601      C1604   1.449       .  S
C1602      C1605   1.450       .  S
C1603      N1610   1.157       .  T
C1604      N1609   1.158       .  T
C1605      N1607   1.158       .  T
C1606      N1608   1.157       .  T
C1611      C1612   1.411       .  A
C1611      C1616   1.408       .  A
C1612      C1613   1.406       .  A
C1612      C1617   1.452       .  S
C1613      C1614   1.411       .  A
C1613      C1620   1.451       .  S
C1614      C1615   1.413       .  A
C1615      C1616   1.413       .  A
C1615      C1618   1.447       .  S
C1616      C1619   1.450       .  S
C1617      N1624   1.157       .  T
C1618      N1623   1.157       .  T
C1619      N1621   1.157       .  T
C1620      N1622   1.157       .  T
C1625      C1626   1.408       .  A
C1625      C1630   1.411       .  A
C1626      C1627   1.410       .  A
C1626      C1631   1.450       .  S
C1627      C1628   1.416       .  A
C1627      C1634   1.450       .  S
C1628      C1629   1.413       .  A
C1629      C1630   1.409       .  A
C1629      C1632   1.450       .  S
C1630      C1633   1.452       .  S
C1631      N1638   1.157       .  T
C1632      N1637   1.157       .  T
C1633      N1635   1.157       .  T
C1634      N1636   1.157       .  T
C1639      C1640   1.419       .  A
C1639      C1644   1.422       .  A
C1640      C1641   1.411       .  A
C1640      C1645   1.450       .  S
C1641      C1642   1.408       .  A
C1641      C1648   1.451       .  S
C1642      C1643   1.404       .  A
C1643      C1644   1.411       .  A
C1643      C1646   1.453       .  S
C1644      C1647   1.444       .  S
C1645      N1652   1.157       .  T
C1646      N1651   1.157       .  T
C1647      N1649   1.155       .  T
C1648      N1650   1.157       .  T
C1653      C1654   1.410       .  A
C1653      C1658   1.408       .  A
C1654      C1655   1.410       .  A
C1654      C1659   1.452       .  S
C1655      C1656   1.413       .  A
C1655      C1662   1.447       .  S
C1656      C1657   1.418       .  A
C1657      C1658   1.412       .  A
C1657      C1660   1.450       .  S
C1658      C1661   1.450       .  S
C1659      N1666   1.157       .  T
C1660      N1665   1.157       .  T
C1661      N1663   1.157       .  T
C1662      N1664   1.156       .  T
C1667      C1668   1.416       .  A
C1667      C1672   1.398       .  A
C1668      C1669   1.423       .  A
C1668      C1673   1.449       .  S
C1669      C1670   1.428       .  A
C1669      C1676   1.448       .  S
C1670      C1671   1.426       .  A
C1671      C1672   1.393       .  A
C1671      C1674   1.451       .  S
C1672      C1675   1.448       .  S
C1673      N1680   1.157       .  T
C1674      N1679   1.157       .  T
C1675      N1677   1.157       .  T
C1676      N1678   1.158       .  T
