geometry optimzed in LAMMPS
_audit_creation_date              2020-11-30 
_audit_creation_method            'lammps2cif' 
_symmetry_space_group_name_H-M    'P1' 
_symmetry_Int_Tables_number       1 
_symmetry_cell_setting            triclinic 
loop_ 
_symmetry_equiv_pos_as_xyz 
  x,y,z 
_cell_length_a                    39.2666017 
_cell_length_b                    42.8628929917892 
_cell_length_c                    31.36629114897567 
_cell_angle_alpha                 89.99600568864476 
_cell_angle_beta                  90.01015628871154 
_cell_angle_gamma                 90.00449300394381 
loop_ 
_atom_site_label 
_atom_site_type_symbol 
_atom_site_fract_x 
_atom_site_fract_y 
_atom_site_fract_z 
_atom_site_charge 
C1          C  0.46529541  0.00389553  0.27024238     0.33000
C2          C  0.03621274  0.99806148  0.26908399     0.33000
C3          C  0.48329459  0.00210459  0.31397085    -0.03200
C4          C  0.48333748  0.47031270  0.24309267    -0.04000
C5          C  0.48524173  0.03062119  0.24813401    -0.03800
C6          C  0.01899989  0.99914797  0.31366454    -0.03200
C7          C  0.01891656  0.47343366  0.24354204    -0.04000
C8          C  0.02103487  0.02751723  0.24771658    -0.03800
C9          C  0.02554465  0.50293277  0.35064168    -0.29200
N10         N  0.49735552  0.50032548  0.37575846     0.17300
C11         C  0.46947410  0.49832212  0.35013850    -0.29200
H12         H  0.44358906  0.49540858  0.36128863     0.19200
C13         C  0.03230176  0.44835206  0.22168202    -0.28200
N14         N  0.00630206  0.43008290  0.20787879     0.16000
C15         C  0.47650824  0.44319195  0.22050868    -0.28200
C16         C  0.03358613  0.05203931  0.22380915    -0.28500
N17         N  0.00700330  0.06964351  0.20998113     0.16500
H18         H  0.06001961  0.05616547  0.21582591     0.19100
C19         C  0.47744090  0.05700219  0.22455225    -0.28500
H20         H  0.45216460  0.06556482  0.21726331     0.19100
H21         H  0.45155922  0.43412631  0.21264846     0.19100
H22         H  0.05141691  0.50436836  0.36238129     0.19200
H23         H  0.05897126  0.44425699  0.21500144     0.19100
C24         C  0.28349495  0.50053047  0.26180369     0.33000
C25         C  0.21277611  0.50797215  0.26192800     0.33000
C26         C  0.26567699  0.49953721  0.30588687    -0.03200
C27         C  0.26704315  0.02431132  0.25163868    -0.04000
C28         C  0.26258392  0.47627675  0.23593116    -0.03800
C29         C  0.23007549  0.50322205  0.30594873    -0.03200
C30         C  0.23140059  0.02154682  0.25010826    -0.04000
C31         C  0.22700541  0.48015990  0.23635807    -0.03800
C32         C  0.22098015  0.99069687  0.35691246    -0.29200
N33         N  0.24834589  0.99260498  0.38355803     0.17300
C34         C  0.27701203  0.99494683  0.35929854    -0.29200
H35         H  0.30257634  0.99725566  0.37182439     0.19200
C36         C  0.21943301  0.04643877  0.22642892    -0.28200
N37         N  0.24637796  0.06406787  0.21385026     0.16000
C38         C  0.27549860  0.05083441  0.22883147    -0.28200
C39         C  0.21330291  0.45804934  0.20936143    -0.28500
N40         N  0.23902906  0.44084070  0.19260708     0.16500
H41         H  0.18660210  0.45507024  0.20182889     0.19100
C42         C  0.26916994  0.45170077  0.20829689    -0.28500
H43         H  0.29401327  0.44276623  0.19970902     0.19100
H44         H  0.30095380  0.05926256  0.22238129     0.19100
H45         H  0.19475010  0.98905108  0.36724498     0.19200
H46         H  0.19318202  0.05079560  0.21772418     0.19100
C47         C  0.03344461  0.00564010  0.70722887     0.33000
C48         C  0.46267563  0.99874828  0.70718070     0.33000
C49         C  0.01561347  0.00538348  0.66309126    -0.03200
C50         C  0.01206390  0.47052721  0.72344184    -0.04000
C51         C  0.01255856  0.03066065  0.73161793    -0.03800
C52         C  0.47996235  0.00217645  0.66297300    -0.03200
C53         C  0.47651145  0.47379148  0.72364215    -0.04000
C54         C  0.47697467  0.02721831  0.73118021    -0.03800
C55         C  0.46827040  0.50113675  0.61504991    -0.29200
N56         N  0.99623024  0.49801516  0.58943888     0.17300
C57         C  0.02441030  0.49622814  0.61458691    -0.29200
H58         H  0.05022155  0.49376311  0.60297784     0.19200
C59         C  0.46384354  0.44975637  0.74824963    -0.28200
N60         N  0.99007682  0.43225967  0.76281394     0.16000
C61         C  0.01969550  0.44474347  0.74815169    -0.28200
C62         C  0.46331815  0.04987414  0.75722616    -0.28500
N63         N  0.98905685  0.06696721  0.77340547     0.16500
H64         H  0.43665112  0.05289668  0.76491489     0.19100
C65         C  0.01920302  0.05580840  0.75820707    -0.28500
H66         H  0.04405760  0.06476704  0.76670396     0.19100
H67         H  0.04488824  0.43636285  0.75613099     0.19100
H68         H  0.44228511  0.50287764  0.60378094     0.19200
H69         H  0.43737799  0.44579134  0.75631631     0.19100
C70         C  0.21145016  0.49189098  0.70044264     0.33000
C71         C  0.28230037  0.49781734  0.69981806     0.33000
C72         C  0.22897209  0.49162820  0.65602347    -0.03200
C73         C  0.23409675  0.03588640  0.73000894    -0.04000
C74         C  0.23190831  0.46634653  0.72476002    -0.03800
C75         C  0.26466914  0.49459182  0.65575688    -0.03200
C76         C  0.26972994  0.03194282  0.72921458    -0.04000
C77         C  0.26762366  0.46949932  0.72415870    -0.03800
C78         C  0.27519426  0.99756976  0.62336921    -0.29200
N79         N  0.24696732  0.99893208  0.59816848     0.17300
C80         C  0.21928277  0.00317436  0.62373001    -0.29200
H81         H  0.19330973  0.00512617  0.61249278     0.19200
C82         C  0.28396384  0.05604224  0.75229467    -0.28200
N83         N  0.25870166  0.07464698  0.76723313     0.16000
C84         C  0.22817754  0.06262182  0.75421207    -0.28200
C85         C  0.28086526  0.44664406  0.75046203    -0.28500
N86         N  0.25479610  0.42964985  0.76693438     0.16500
H87         H  0.30749335  0.44323108  0.75807159     0.19100
C88         C  0.22487204  0.44143514  0.75175107    -0.28500
H89         H  0.19983539  0.43311327  0.76062743     0.19100
H90         H  0.20352166  0.07178956  0.76319097     0.19100
H91         H  0.30091825  0.99431656  0.61183063     0.19200
H92         H  0.31074269  0.05899964  0.75941415     0.19100
Zn93       Zn  0.47137171  0.21376205  0.99707010     1.49700
Zn94       Zn  0.03424384  0.24907209  0.02885850     1.49400
Zn95       Zn  0.00789082  0.24886296  0.92524475     1.49100
Zn96       Zn  0.47778972  0.29206954  0.99341336     1.49500
O97         O  0.99795296  0.25081682  0.98611836    -1.81100
O98         O  0.48950029  0.18479491  0.04205916    -0.71700
O99         O  0.07399116  0.24189731  0.99158524    -0.71600
O100        O  0.98911779  0.21146190  0.89420065    -0.71100
O101        O  0.03165118  0.21161954  0.06998999    -0.71800
O102        O  0.46281427  0.18572823  0.94521163    -0.71400
O103        O  0.05574947  0.24083969  0.92345125    -0.71900
O104        O  0.47359128  0.31846345  0.93950991    -0.71300
O105        O  0.03731813  0.28837882  0.06755133    -0.72100
O106        O  0.99890639  0.28853337  0.89174716    -0.71500
O107        O  0.49879474  0.31913991  0.03816723    -0.71900
O108        O  0.43487046  0.28299734  0.02045127    -0.71900
O109        O  0.43111844  0.23071554  0.02451600    -0.71600
C110        C  0.01247826  0.18766053  0.06981832     0.80100
C111        C  0.07847660  0.23795705  0.95164368     0.80600
C112        C  0.97303888  0.18753958  0.90698725     0.79600
C113        C  0.98446445  0.31396771  0.90213358     0.80000
C114        C  0.02029514  0.31375608  0.06688911     0.81100
C115        C  0.42094254  0.25807348  0.03334242     0.80200
Zn116      Zn  0.29081562  0.25288703  0.95398891     1.49700
Zn117      Zn  0.23659199  0.20603074  0.98650959     1.49400
Zn118      Zn  0.25623106  0.25226440  0.05528607     1.49100
Zn119      Zn  0.22229185  0.28359412  0.97826768     1.49500
O120        O  0.25204404  0.24911445  0.99281457    -1.81100
O121        O  0.29536013  0.21476801  0.91178174    -0.71700
O122        O  0.23828849  0.17877804  0.03970823    -0.71600
O123        O  0.30399143  0.25602377  0.06309413    -0.71100
O124        O  0.25744579  0.18211531  0.93886205    -0.71800
O125        O  0.32769527  0.25608755  0.99752464    -0.71400
O126        O  0.24395224  0.21388839  0.09091917    -0.71900
O127        O  0.21503764  0.31567688  0.02649797    -0.71300
O128        O  0.19047759  0.21021377  0.96634193    -0.72100
O129        O  0.23926480  0.29232123  0.08165964    -0.71500
O130        O  0.18160347  0.26184346  0.95879593    -0.71900
O131        O  0.23771656  0.30993749  0.92873610    -0.71900
O132        O  0.28982542  0.29280939  0.91572724    -0.71600
C133        C  0.27914104  0.18885799  0.91052852     0.80100
C134        C  0.24027430  0.18569974  0.07903922     0.80600
C135        C  0.32916778  0.25748996  0.03827086     0.79600
C136        C  0.22474442  0.31590980  0.06528332     0.80000
C137        C  0.17285561  0.23343184  0.95469540     0.81100
C138        C  0.26552393  0.31190321  0.90838328     0.80200
C139        C  0.36096027  0.26057254  0.05682870    -0.10300
C140        C  0.39077025  0.26083283  0.05571032    -0.11800
C141        C  0.14060907  0.22777845  0.93882261    -0.10300
C142        C  0.11084310  0.22992738  0.93808598    -0.11800
C143        C  0.26863407  0.33649929  0.87644593    -0.15500
C144        C  0.26702392  0.35786306  0.85079544     0.08600
C145        C  0.26269217  0.38317141  0.82127510     0.10400
C146        C  0.25862646  0.40465043  0.79622154    -0.16300
C147        C  0.26418052  0.10047477  0.79474994    -0.15500
C148        C  0.27085465  0.12203260  0.81882052     0.08600
C149        C  0.27885110  0.14662267  0.84834033     0.10400
C150        C  0.28270708  0.16682611  0.87536359    -0.16300
C151        C  0.98234754  0.33890732  0.87113028    -0.15500
C152        C  0.98279734  0.36013282  0.84555838     0.08600
C153        C  0.48560663  0.38544960  0.81589504     0.10400
C154        C  0.98729649  0.40687406  0.79120377    -0.16300
C155        C  0.98451873  0.09205128  0.80203312    -0.15500
C156        C  0.47919168  0.11401947  0.82609791     0.08600
C157        C  0.47292013  0.13958324  0.85413700     0.10400
C158        C  0.96991793  0.16124068  0.87825246    -0.16300
C159        C  0.32134506  0.50075173  0.69996334    -0.15500
C160        C  0.35300774  0.50248010  0.70044910     0.08600
C161        C  0.39185338  0.99615269  0.70836810     0.10400
C162        C  0.42358019  0.99622402  0.70771696    -0.16300
C163        C  0.07252867  0.00884034  0.70764100    -0.15500
C164        C  0.10424373  0.01026927  0.70841117     0.08600
C165        C  0.14057944  0.49039983  0.70082795     0.10400
C166        C  0.17231000  0.49000418  0.70078893    -0.16300
C167        C  0.23456098  0.41573916  0.16382029    -0.15500
C168        C  0.22970318  0.39384447  0.13984527     0.08600
C169        C  0.22429899  0.36738621  0.11284788     0.10400
C170        C  0.22194128  0.34416991  0.09068537    -0.16300
C171        C  0.23951791  0.16086338  0.11052952    -0.15500
C172        C  0.24054850  0.13922572  0.13556573     0.08600
C173        C  0.24262398  0.11316425  0.16382738     0.10400
C174        C  0.24448401  0.09059504  0.18719093    -0.16300
C175        C  0.24723217  0.99309657  0.42892518    -0.16100
C176        C  0.24668518  0.99383131  0.46795207     0.08600
C177        C  0.24648698  0.99519332  0.51390420     0.10400
C178        C  0.24659358  0.99676642  0.55288552    -0.16300
C179        C  0.02361652  0.33684115  0.10055210    -0.15500
C180        C  0.02093522  0.35711136  0.12751030     0.08600
C181        C  0.51568534  0.38208885  0.15725049     0.10400
C182        C  0.01034752  0.40368746  0.18128376    -0.16300
C183        C  0.00974733  0.09563525  0.18240159    -0.15500
C184        C  0.01250545  0.11758663  0.15805987     0.08600
C185        C  0.01525985  0.14279255  0.12844166     0.10400
C186        C  0.01585474  0.16370966  0.10226568    -0.16300
C187        C  0.42624261  0.00551657  0.27108689    -0.15500
C188        C  0.39459276  0.00463840  0.27209069     0.08600
C189        C  0.35422278  0.49603285  0.26201207     0.10400
C190        C  0.32252874  0.49734871  0.26171280    -0.16300
C191        C  0.07537153  0.99518730  0.26829671    -0.15500
C192        C  0.10708929  0.99325802  0.26797191     0.08600
C193        C  0.14188215  0.50973239  0.26266871     0.10400
C194        C  0.17362885  0.51025562  0.26212378    -0.16300
C195        C  0.49704756  0.49912964  0.42091879    -0.15500
C196        C  0.99669165  0.49805236  0.45966897     0.08600
C197        C  0.49614830  0.49780670  0.50547379     0.10400
C198        C  0.49598142  0.49788913  0.54434502    -0.16300
C199        C  0.46266259  0.49725280  0.26374728     0.33000
C200        C  0.03348364  0.50331337  0.26416637     0.33000
C201        C  0.47989323  0.49984774  0.30802856    -0.03200
C202        C  0.47990209  0.97510227  0.24735629    -0.04000
C203        C  0.47752891  0.52583848  0.24044310    -0.03800
C204        C  0.01558873  0.50279801  0.30825193    -0.03200
C205        C  0.01558180  0.97190373  0.24653919    -0.04000
C206        C  0.01312327  0.52894467  0.24028356    -0.03800
C207        C  0.02932494  0.99831150  0.35597588    -0.29200
N208        N  0.50137446  0.00068256  0.38135187     0.17300
C209        C  0.47326986  0.00291886  0.35621416    -0.29200
H210        H  0.44742536  0.00509729  0.36781111     0.19200
C211        C  0.02246820  0.94624955  0.22096378    -0.28200
N212        N  0.99241802  0.93396235  0.20705934     0.16000
C213        C  0.46642038  0.95142052  0.22285617    -0.28200
C214        C  0.02038468  0.55433591  0.21438806    -0.28500
N215        N  0.99055411  0.56630929  0.19936755     0.16500
H216        H  0.04547578  0.56286708  0.20612154     0.19100
C217        C  0.46445376  0.54914043  0.21490578    -0.28500
H218        H  0.43789336  0.55268147  0.20706305     0.19100
H219        H  0.43970703  0.94771374  0.21587344     0.19100
H220        H  0.05527677  0.99633380  0.36731331     0.19200
H221        H  0.04741860  0.93780571  0.21202293     0.19100
C222        C  0.28661587  0.99727128  0.27308172     0.33000
C223        C  0.21575679  0.99180154  0.26986788     0.33000
C224        C  0.26797283  0.99449435  0.31653008    -0.03200
C225        C  0.26966491  0.53137087  0.24331418    -0.04000
C226        C  0.27236308  0.96886790  0.24857464    -0.03800
C227        C  0.23225916  0.99177289  0.31494668    -0.03200
C228        C  0.23401651  0.53537695  0.24288357    -0.04000
C229        C  0.23664330  0.96589421  0.24657640    -0.03800
C230        C  0.21974383  0.50217877  0.34822972    -0.29200
N231        N  0.24757625  0.49805717  0.37355153     0.17300
C232        C  0.27565058  0.49644794  0.34812091    -0.29200
H233        H  0.30146859  0.49348739  0.35948834     0.19200
C234        C  0.22797254  0.56227729  0.21919374    -0.28200
N235        N  0.25843633  0.57434385  0.20615551     0.16000
C236        C  0.28379206  0.55563851  0.22054694    -0.28200
C237        C  0.23027818  0.94079022  0.21952265    -0.28500
N238        N  0.26057767  0.92875652  0.20576853     0.16500
H239        H  0.20548137  0.93254083  0.20959454     0.19100
C240        C  0.28621678  0.94576819  0.22319231    -0.28500
H241        H  0.31303782  0.94223614  0.21677974     0.19100
H242        H  0.31050602  0.55854555  0.21301068     0.19100
H243        H  0.19388370  0.50454398  0.35971938     0.19200
H244        H  0.20328717  0.57143838  0.21033968     0.19100
C245        C  0.03228347  0.49675000  0.70091886     0.33000
C246        C  0.46143784  0.50282922  0.70157248     0.33000
C247        C  0.01448213  0.49796730  0.65688136    -0.03200
C248        C  0.01945092  0.97534890  0.72723950    -0.04000
C249        C  0.01757936  0.52604735  0.72307087    -0.03800
C250        C  0.47876399  0.50120572  0.65723527    -0.03200
C251        C  0.48380105  0.97190413  0.72748313    -0.04000
C252        C  0.48189272  0.52943182  0.72373092    -0.03800
C253        C  0.46977494  0.00098371  0.62066628    -0.29200
N254        N  0.99773914  0.00329722  0.59547211     0.17300
C255        C  0.02571281  0.00621554  0.62079383    -0.29200
H256        H  0.05161685  0.00817070  0.60929443     0.19200
C257        C  0.47745137  0.94491143  0.75064275    -0.28200
N258        N  0.00781318  0.93214798  0.76377430     0.16000
C259        C  0.03338127  0.95076552  0.74963556    -0.28200
C260        C  0.47486065  0.55542665  0.74876326    -0.28500
N261        N  0.00467005  0.56757579  0.76283363     0.16500
H262        H  0.44981914  0.56395754  0.75720918     0.19100
C263        C  0.03077201  0.55000488  0.74755982    -0.28500
H264        H  0.05739106  0.55374642  0.75490448     0.19100
H265        H  0.06012641  0.94736035  0.75663564     0.19100
H266        H  0.44402477  0.99769987  0.60923463     0.19200
H267        H  0.45265990  0.93565112  0.75879391     0.19100
C268        C  0.21280277  0.00873030  0.71023504     0.33000
C269        C  0.28353515  0.00144837  0.70961332     0.33000
C270        C  0.22989687  0.00462256  0.66592610    -0.03200
C271        C  0.22630191  0.52187841  0.72049018    -0.04000
C272        C  0.22724634  0.98045773  0.73483145    -0.03800
C273        C  0.26550315  0.00101501  0.66564854    -0.03200
C274        C  0.26197630  0.52492775  0.72032215    -0.04000
C275        C  0.26285502  0.97671222  0.73477658    -0.03800
C276        C  0.27473180  0.49474239  0.61334962    -0.29200
N277        N  0.24667419  0.49200259  0.58807003     0.17300
C278        C  0.21870686  0.49007515  0.61368405    -0.29200
H279        H  0.19274677  0.48818387  0.60238528     0.19200
C280        C  0.26957215  0.55055200  0.74553078    -0.28200
N281        N  0.24002144  0.56301399  0.76050383     0.16000
C282        C  0.21356175  0.54566027  0.74569458    -0.28200
C283        C  0.26981911  0.95137205  0.76084200    -0.28500
N284        N  0.23988917  0.93987083  0.77619050     0.16500
H285        H  0.29478064  0.94229475  0.76856736     0.19100
C286        C  0.21388700  0.95740229  0.76066661    -0.28500
H287        H  0.18725432  0.95395402  0.76820013     0.19100
H288        H  0.18717286  0.54909068  0.75440942     0.19100
H289        H  0.30054758  0.49720067  0.60175815     0.19200
H290        H  0.29482089  0.55855288  0.75411928     0.19100
Zn291      Zn  0.47222851  0.71339494  0.97358078     1.49700
Zn292      Zn  0.00531301  0.75060728  0.04631376     1.49400
Zn293      Zn  0.03507347  0.74990396  0.94284546     1.49100
Zn294      Zn  0.47637456  0.79257340  0.97612527     1.49500
O295        O  0.99767803  0.75149378  0.98452088    -1.81100
O296        O  0.46562103  0.68433735  0.02529975    -0.71700
O297        O  0.05362721  0.74853095  0.05044816    -0.71600
O298        O  0.03487757  0.71074721  0.90273464    -0.71100
O299        O  0.99040835  0.71138032  0.07680135    -0.71800
O300        O  0.49072756  0.68541131  0.92753460    -0.71400
O301        O  0.07395743  0.74750865  0.98317084    -0.71900
O302        O  0.49774845  0.81978178  0.93158060    -0.71300
O303        O  0.99216342  0.78937519  0.07985094    -0.72100
O304        O  0.03767683  0.78908675  0.90314126    -0.71500
O305        O  0.47091036  0.82005036  0.02950327    -0.71900
O306        O  0.43397958  0.78184810  0.94828355    -0.71900
O307        O  0.43115832  0.72936057  0.94698006    -0.71600
C308        C  0.97587486  0.68669122  0.06380390     0.80100
C309        C  0.07752959  0.74688970  0.02367199     0.80600
C310        C  0.01471345  0.68735938  0.90142891     0.79600
C311        C  0.02069069  0.81452812  0.90345057     0.80000
C312        C  0.97982375  0.81539143  0.06806354     0.81100
C313        C  0.42046898  0.75632009  0.93679871     0.80200
Zn314      Zn  0.25546220  0.74970525  0.91750713     1.49700
Zn315      Zn  0.23114161  0.70812191  0.98999889     1.49400
Zn316      Zn  0.29197758  0.75068633  0.01792207     1.49100
Zn317      Zn  0.22697554  0.78671069  0.99362875     1.49500
O318        O  0.25204432  0.74881352  0.98034246    -1.81100
O319        O  0.24220309  0.71009780  0.88509446    -0.71700
O320        O  0.25173828  0.68380721  0.03745536    -0.71600
O321        O  0.32800951  0.75272264  0.97329470    -0.71100
O322        O  0.22867416  0.67861228  0.93834557    -0.71800
O323        O  0.30323343  0.75247084  0.90837045    -0.71400
O324        O  0.29594065  0.71197421  0.05855045    -0.71900
O325        O  0.24539543  0.81280735  0.04141052    -0.71300
O326        O  0.18663950  0.71840269  0.01273798    -0.72100
O327        O  0.29418323  0.79011334  0.05771422    -0.71500
O328        O  0.18438400  0.77084019  0.01588013    -0.71900
O329        O  0.22178591  0.81722668  0.94381658    -0.71900
O330        O  0.23882101  0.78922257  0.88845298    -0.71600
C331        C  0.23390767  0.68320278  0.89876906     0.80100
C332        C  0.27661214  0.68810356  0.06242275     0.80600
C333        C  0.32885045  0.75372322  0.93251571     0.79600
C334        C  0.27233393  0.81181973  0.06353024     0.80000
C335        C  0.17236794  0.74385852  0.02300817     0.81100
C336        C  0.22823537  0.81477605  0.90418646     0.80200
C337        C  0.36040297  0.75662588  0.91323047    -0.10300
C338        C  0.39019954  0.75785651  0.91433658    -0.11800
C339        C  0.13999951  0.74236728  0.04014639    -0.10300
C340        C  0.11018513  0.74385895  0.03969031    -0.11800
C341        C  0.22599984  0.84210976  0.87693193    -0.15500
C342        C  0.22788794  0.86506301  0.85423360     0.08600
C343        C  0.23216698  0.89171186  0.82733199     0.10400
C344        C  0.23607246  0.91406845  0.80391905    -0.16300
C345        C  0.23727231  0.58819833  0.78955870    -0.15500
C346        C  0.23489321  0.60982131  0.81462207     0.08600
C347        C  0.23266314  0.63534088  0.84403381     0.10400
C348        C  0.23195883  0.65714571  0.86897941    -0.16300
C349        C  0.02490012  0.83804309  0.87033748    -0.15500
C350        C  0.02289505  0.85888638  0.84401177     0.08600
C351        C  0.51722481  0.88449674  0.81467725     0.10400
C352        C  0.01244570  0.90597147  0.79073719    -0.16300
C353        C  0.00841240  0.59349729  0.79068563    -0.15500
C354        C  0.51264934  0.61609738  0.81457648     0.08600
C355        C  0.51700082  0.64190040  0.84342643     0.10400
C356        C  0.01815043  0.66290752  0.86920222    -0.16300
C357        C  0.32256342  0.99828210  0.70942138    -0.15500
C358        C  0.35425550  0.99698324  0.70904965     0.08600
C359        C  0.39057430  0.50399236  0.70117116     0.10400
C360        C  0.42229417  0.50450324  0.70165890    -0.16300
C361        C  0.07133286  0.49374232  0.70084723    -0.15500
C362        C  0.10299849  0.49191816  0.70082404     0.08600
C363        C  0.14188791  0.01121481  0.70948645     0.10400
C364        C  0.17364733  0.01118881  0.71021177    -0.16300
C365        C  0.26523497  0.90369652  0.17667103    -0.15500
C366        C  0.27013206  0.88225856  0.15170395     0.08600
C367        C  0.27519763  0.85706278  0.12205986     0.10400
C368        C  0.27681630  0.83587071  0.09607557    -0.16300
C369        C  0.28078829  0.66566559  0.09680639    -0.15500
C370        C  0.27750875  0.64557154  0.12396808     0.08600
C371        C  0.27003502  0.62131353  0.15397757     0.10400
C372        C  0.26367363  0.59999508  0.17842747    -0.16300
C373        C  0.24738448  0.49623879  0.41883329    -0.16100
C374        C  0.24711893  0.49479167  0.45779622     0.08600
C375        C  0.24675735  0.49335718  0.50370186     0.10400
C376        C  0.24658227  0.49251800  0.54270668    -0.16300
C377        C  0.97771188  0.84072092  0.09879235    -0.15500
C378        C  0.97960104  0.86201182  0.12435367     0.08600
C379        C  0.48395302  0.88710882  0.15401281     0.10400
C380        C  0.98839781  0.90861323  0.17862526    -0.16300
C381        C  0.98679589  0.59152353  0.17066101    -0.15500
C382        C  0.98224239  0.61302330  0.14597912     0.08600
C383        C  0.97671522  0.63832157  0.11707712     0.10400
C384        C  0.97392678  0.66018645  0.09258478    -0.16300
C385        C  0.42354610  0.49511859  0.26316898    -0.15500
C386        C  0.39182052  0.49515255  0.26260869     0.08600
C387        C  0.35715056  0.00250615  0.27325490     0.10400
C388        C  0.32557006  0.00031416  0.27381815    -0.16300
C389        C  0.07258683  0.50624461  0.26395895    -0.15500
C390        C  0.10427587  0.50805889  0.26342502     0.08600
C391        C  0.14474357  0.99133156  0.26795585     0.10400
C392        C  0.17651703  0.99043952  0.26837060    -0.16300
C393        C  0.50116919  0.00080906  0.42657841    -0.15500
C394        C  0.00019629  0.00077477  0.46562604     0.08600
C395        C  0.49888238  0.00176658  0.51120245     0.10400
C396        C  0.49807059  0.00261096  0.55008615    -0.16300
C397        C  0.96530423  0.00374888  0.27035585     0.33000
C398        C  0.53621208  0.99820782  0.26891778     0.33000
C399        C  0.98328472  0.00197891  0.31410392    -0.03200
C400        C  0.98319602  0.47019803  0.24304297    -0.04000
C401        C  0.98526022  0.03046148  0.24821490    -0.03800
C402        C  0.51901173  0.99927516  0.31350798    -0.03200
C403        C  0.51904801  0.47360244  0.24366031    -0.04000
C404        C  0.52101967  0.02768272  0.24760054    -0.03800
C405        C  0.52555186  0.50307722  0.35077512    -0.29200
N406        N  0.99736047  0.50020922  0.37565712     0.17300
C407        C  0.96946010  0.49824756  0.35006614    -0.29200
H408        H  0.94357942  0.49534736  0.36124018     0.19200
C409        C  0.53252726  0.44857516  0.22179394    -0.28200
N410        N  0.50659117  0.43027414  0.20790319     0.16000
C411        C  0.97626902  0.44307093  0.22052750    -0.28200
C412        C  0.53355055  0.05228755  0.22383339    -0.28500
N413        N  0.50694996  0.06992359  0.21012933     0.16500
H414        H  0.55998077  0.05646505  0.21588413     0.19100
C415        C  0.97748130  0.05677254  0.22446145    -0.28500
H416        H  0.95221073  0.06530439  0.21707458     0.19100
H417        H  0.95128873  0.43404247  0.21275341     0.19100
H418        H  0.55141374  0.50456446  0.36254121     0.19200
H419        H  0.55921370  0.44454551  0.21515461     0.19100
C420        C  0.78344098  0.50059193  0.26176166     0.33000
C421        C  0.71273634  0.50798794  0.26191440     0.33000
C422        C  0.76563585  0.49960473  0.30585978    -0.03200
C423        C  0.76708756  0.02416915  0.25162797    -0.04000
C424        C  0.76254334  0.47630726  0.23591779    -0.03800
C425        C  0.73003661  0.50326755  0.30592651    -0.03200
C426        C  0.73144666  0.02140664  0.25004677    -0.04000
C427        C  0.72696527  0.48017106  0.23636027    -0.03800
C428        C  0.72093985  0.99065015  0.35685983    -0.29200
N429        N  0.74829008  0.99259166  0.38352857     0.17300
C430        C  0.77697139  0.99489874  0.35929752    -0.29200
H431        H  0.80252668  0.99723394  0.37184475     0.19200
C432        C  0.71949935  0.04632632  0.22641390    -0.28200
N433        N  0.74645937  0.06396556  0.21391958     0.16000
C434        C  0.77556633  0.05071591  0.22890164    -0.28200
C435        C  0.71326451  0.45805471  0.20937255    -0.28500
N436        N  0.73899199  0.44085676  0.19260191     0.16500
H437        H  0.68656364  0.45507138  0.20184527     0.19100
C438        C  0.76913354  0.45173139  0.20827771    -0.28500
H439        H  0.79397952  0.44281536  0.19966580     0.19100
H440        H  0.80102615  0.05916976  0.22254064     0.19100
H441        H  0.69470279  0.98903132  0.36717031     0.19200
H442        H  0.69325320  0.05071502  0.21771862     0.19100
C443        C  0.53345340  0.00603112  0.70707367     0.33000
C444        C  0.96266665  0.99834244  0.70736612     0.33000
C445        C  0.51563220  0.00578946  0.66292775    -0.03200
C446        C  0.51219841  0.47086157  0.72343253    -0.04000
C447        C  0.51256672  0.03105395  0.73146083    -0.03800
C448        C  0.97994483  0.00176435  0.66315176    -0.03200
C449        C  0.97637752  0.47351151  0.72353702    -0.04000
C450        C  0.97696808  0.02681605  0.73134750    -0.03800
C451        C  0.96832816  0.50079017  0.61490623    -0.29200
N452        N  0.49614951  0.49840267  0.58953044     0.17300
C453        C  0.52435831  0.49663827  0.61462206    -0.29200
H454        H  0.55015965  0.49419568  0.60296620     0.19200
C455        C  0.96359638  0.44955035  0.74817066    -0.28200
N456        N  0.49040365  0.43249031  0.76274240     0.16000
C457        C  0.51995310  0.44505459  0.74801573    -0.28200
C458        C  0.96330692  0.04946418  0.75739593    -0.28500
N459        N  0.48907246  0.06737115  0.77324251     0.16500
H460        H  0.93664129  0.05247633  0.76509452     0.19100
C461        C  0.51921603  0.05620083  0.75804970    -0.28500
H462        H  0.54407220  0.06515256  0.76654830     0.19100
H463        H  0.54518501  0.43670989  0.75586996     0.19100
H464        H  0.94235854  0.50256826  0.60358942     0.19200
H465        H  0.93710214  0.44565459  0.75615577     0.19100
C466        C  0.71139439  0.49196566  0.70038576     0.33000
C467        C  0.78224308  0.49774063  0.69981422     0.33000
C468        C  0.72892201  0.49166082  0.65598463    -0.03200
C469        C  0.73417651  0.03614519  0.72998492    -0.04000
C470        C  0.73175952  0.46638390  0.72472572    -0.03800
C471        C  0.76462141  0.49454951  0.65573579    -0.03200
C472        C  0.76980073  0.03211277  0.72922335    -0.04000
C473        C  0.76748215  0.46945051  0.72416215    -0.03800
C474        C  0.77520105  0.99773601  0.62331640    -0.29200
N475        N  0.74697853  0.99915366  0.59810870     0.17300
C476        C  0.71930603  0.00349023  0.62365303    -0.29200
H477        H  0.69333525  0.00547787  0.61240744     0.19200
C478        C  0.78408793  0.05617203  0.75234244    -0.28200
N479        N  0.75886733  0.07483682  0.76726480     0.16000
C480        C  0.72832001  0.06288934  0.75419451    -0.28200
C481        C  0.78061980  0.44660204  0.75057247    -0.28500
N482        N  0.75447359  0.42970303  0.76705615     0.16500
H483        H  0.80722433  0.44314156  0.75826002     0.19100
C484        C  0.72460983  0.44154371  0.75178329    -0.28500
H485        H  0.69953342  0.43331853  0.76066036     0.19100
H486        H  0.70368345  0.07212095  0.76313571     0.19100
H487        H  0.80090987  0.99437913  0.61179138     0.19200
H488        H  0.81087048  0.05906598  0.75948484     0.19100
Zn489      Zn  0.97106029  0.21344645  0.99707873     1.49700
Zn490      Zn  0.53445938  0.24928276  0.02915577     1.49400
Zn491      Zn  0.50845108  0.24906094  0.92543107     1.49100
Zn492      Zn  0.97735778  0.29176109  0.99341388     1.49500
O493        O  0.49832087  0.25110967  0.98623467    -1.81100
O494        O  0.98936514  0.18450522  0.04197663    -0.71700
O495        O  0.57418459  0.24138192  0.99219095    -0.71600
O496        O  0.48936449  0.21188840  0.89415421    -0.71100
O497        O  0.53140668  0.21209796  0.07061039    -0.71800
O498        O  0.96243897  0.18539524  0.94525247    -0.71400
O499        O  0.55616694  0.24038054  0.92396334    -0.71900
O500        O  0.97295549  0.31823760  0.93961803    -0.71300
O501        O  0.53788827  0.28873092  0.06748080    -0.72100
O502        O  0.50001834  0.28883119  0.89195005    -0.71500
O503        O  0.99830588  0.31884045  0.03818259    -0.71900
O504        O  0.93453285  0.28260425  0.02055502    -0.71900
O505        O  0.93084824  0.23032549  0.02471678    -0.71600
C506        C  0.51234439  0.18807308  0.07022160     0.80100
C507        C  0.57872113  0.23719492  0.95231031     0.80600
C508        C  0.47331739  0.18794073  0.90691404     0.79600
C509        C  0.48541868  0.31422757  0.90216957     0.80000
C510        C  0.52087332  0.31411022  0.06678773     0.81100
C511        C  0.92067069  0.25768134  0.03354647     0.80200
Zn512      Zn  0.79058509  0.25309281  0.95420583     1.49700
Zn513      Zn  0.73705358  0.20584242  0.98702933     1.49400
Zn514      Zn  0.75603892  0.25233962  0.05554039     1.49100
Zn515      Zn  0.72181330  0.28329666  0.97850578     1.49500
O516        O  0.75192073  0.24911613  0.99309046    -1.81100
O517        O  0.79517516  0.21506547  0.91180485    -0.71700
O518        O  0.73908534  0.17873809  0.04026867    -0.71600
O519        O  0.80378377  0.25598430  0.06333314    -0.71100
O520        O  0.75790247  0.18200102  0.93931956    -0.71800
O521        O  0.82747836  0.25625198  0.99774891    -0.71400
O522        O  0.74363756  0.21407557  0.09135186    -0.71900
O523        O  0.71447519  0.31549158  0.02665601    -0.71300
O524        O  0.69086256  0.20949372  0.96719141    -0.72100
O525        O  0.73919821  0.29246493  0.08172771    -0.71500
O526        O  0.68132017  0.26101197  0.95937765    -0.71900
O527        O  0.73694147  0.30966395  0.92878691    -0.71900
O528        O  0.78933164  0.29309646  0.91614229    -0.71600
C529        C  0.77927868  0.18898268  0.91071950     0.80100
C530        C  0.74053913  0.18580413  0.07957789     0.80600
C531        C  0.82895348  0.25751054  0.03850904     0.79600
C532        C  0.72444014  0.31591980  0.06534319     0.80000
C533        C  0.67291875  0.23248448  0.95551262     0.81100
C534        C  0.76482099  0.31193051  0.90862882     0.80200
C535        C  0.86074683  0.26040798  0.05710261    -0.10300
C536        C  0.89055438  0.26046438  0.05601230    -0.11800
C537        C  0.64072251  0.22641917  0.93979766    -0.10300
C538        C  0.61096907  0.22860735  0.93899005    -0.11800
C539        C  0.76781302  0.33658540  0.87674785    -0.15500
C540        C  0.76625195  0.35796408  0.85111086     0.08600
C541        C  0.76207655  0.38327592  0.82155368     0.10400
C542        C  0.75816430  0.40474110  0.79643572    -0.16300
C543        C  0.76438332  0.10065869  0.79479183    -0.15500
C544        C  0.77104114  0.12221824  0.81887608     0.08600
C545        C  0.77898962  0.14681705  0.84841739     0.10400
C546        C  0.78282264  0.16701230  0.87546596    -0.16300
C547        C  0.48338951  0.33913710  0.87111771    -0.15500
C548        C  0.48374492  0.36033082  0.84549807     0.08600
C549        C  0.98489307  0.38526662  0.81599730     0.10400
C550        C  0.48779563  0.40707178  0.79109839    -0.16300
C551        C  0.48455241  0.09246467  0.80186539    -0.15500
C552        C  0.97911162  0.11359187  0.82626771     0.08600
C553        C  0.97276409  0.13913866  0.85430004     0.10400
C554        C  0.47013506  0.16168226  0.87811150    -0.16300
C555        C  0.82129073  0.50060671  0.69994128    -0.15500
C556        C  0.85295499  0.50229976  0.70035897     0.08600
C557        C  0.89183367  0.99588832  0.70850387     0.10400
C558        C  0.92356381  0.99585980  0.70789513    -0.16300
C559        C  0.57253846  0.00923259  0.70749777    -0.15500
C560        C  0.60425376  0.01067147  0.70827323     0.08600
C561        C  0.64055778  0.49062395  0.70072927     0.10400
C562        C  0.67227337  0.49015845  0.70070476    -0.16300
C563        C  0.73451313  0.41577255  0.16378467    -0.15500
C564        C  0.72960394  0.39390112  0.13978188     0.08600
C565        C  0.72410130  0.36746733  0.11276307     0.10400
C566        C  0.72166452  0.34424600  0.09061887    -0.16300
C567        C  0.73978574  0.16103968  0.11114983    -0.15500
C568        C  0.74077000  0.13936929  0.13612104     0.08600
C569        C  0.74277730  0.11322062  0.16421456     0.10400
C570        C  0.74459246  0.09057099  0.18742199    -0.16300
C571        C  0.74715996  0.99313909  0.42889072    -0.16100
C572        C  0.74662673  0.99391534  0.46791362     0.08600
C573        C  0.74646224  0.99532113  0.51385890     0.10400
C574        C  0.74659452  0.99693430  0.55283414    -0.16300
C575        C  0.52427404  0.33723861  0.10037163    -0.15500
C576        C  0.52157851  0.35749103  0.12734578     0.08600
C577        C  0.01514734  0.38177525  0.15735677     0.10400
C578        C  0.51075957  0.40393798  0.18123761    -0.16300
C579        C  0.50964973  0.09599982  0.18270404    -0.15500
C580        C  0.51233471  0.11801214  0.15846312     0.08600
C581        C  0.51500466  0.14325534  0.12890964     0.10400
C582        C  0.51558599  0.16416831  0.10273760    -0.16300
C583        C  0.92625530  0.00537106  0.27118082    -0.15500
C584        C  0.89460734  0.00449919  0.27218162     0.08600
C585        C  0.85415689  0.49607515  0.26198653     0.10400
C586        C  0.82246781  0.49741516  0.26167226    -0.16300
C587        C  0.57537776  0.99531058  0.26812123    -0.15500
C588        C  0.60709663  0.99332382  0.26780876     0.08600
C589        C  0.64188152  0.50980968  0.26273378     0.10400
C590        C  0.67361439  0.51028504  0.26213932    -0.16300
C591        C  0.99708318  0.49895068  0.42081706    -0.15500
C592        C  0.49662698  0.49829577  0.45977057     0.08600
C593        C  0.99625091  0.49748958  0.50537523     0.10400
C594        C  0.99609656  0.49752807  0.54424935    -0.16300
C595        C  0.96258605  0.49716992  0.26369831     0.33000
C596        C  0.53353976  0.50347958  0.26432299     0.33000
C597        C  0.97985504  0.49976768  0.30794775    -0.03200
C598        C  0.97991846  0.97493821  0.24750943    -0.04000
C599        C  0.97746790  0.52571981  0.24035064    -0.03800
C600        C  0.51562089  0.50292136  0.30837993    -0.03200
C601        C  0.51556503  0.97206315  0.24635899    -0.04000
C602        C  0.51317940  0.52909703  0.24043593    -0.03800
C603        C  0.52935582  0.99848781  0.35581237    -0.29200
N604        N  0.00133447  0.00048198  0.38150306     0.17300
C605        C  0.97324090  0.00274685  0.35634640    -0.29200
H606        H  0.94738984  0.00489368  0.36792923     0.19200
C607        C  0.52242747  0.94636857  0.22084380    -0.28200
N608        N  0.49236171  0.93406898  0.20700330     0.16000
C609        C  0.96645858  0.95128679  0.22292895    -0.28200
C610        C  0.52045827  0.55446581  0.21451464    -0.28500
N611        N  0.49064149  0.56640475  0.19941007     0.16500
H612        H  0.54555568  0.56299131  0.20626446     0.19100
C613        C  0.96437537  0.54905105  0.21488698    -0.28500
H614        H  0.93780463  0.55263118  0.20713264     0.19100
H615        H  0.93975490  0.94759989  0.21587773     0.19100
H616        H  0.55531347  0.99654639  0.36713649     0.19200
H617        H  0.54736842  0.93789034  0.21192703     0.19100
C618        C  0.78663930  0.99714250  0.27310897     0.33000
C619        C  0.71577861  0.99167261  0.26979684     0.33000
C620        C  0.76796088  0.99438400  0.31652622    -0.03200
C621        C  0.76958229  0.53142203  0.24324137    -0.04000
C622        C  0.77241399  0.96873701  0.24859751    -0.03800
C623        C  0.73224736  0.99166327  0.31490124    -0.03200
C624        C  0.73393344  0.53539398  0.24283980    -0.04000
C625        C  0.73669412  0.96575740  0.24653444    -0.03800
C626        C  0.71969483  0.50221314  0.34820019    -0.29200
N627        N  0.74752513  0.49810781  0.37352593     0.17300
C628        C  0.77560505  0.49651800  0.34809909    -0.29200
H629        H  0.80142240  0.49356643  0.35947199     0.19200
C630        C  0.72782055  0.56225041  0.21909742    -0.28200
N631        N  0.75824735  0.57434118  0.20598448     0.16000
C632        C  0.78364965  0.55568315  0.22038475    -0.28200
C633        C  0.73038096  0.94071076  0.21935217    -0.28500
N634        N  0.76070651  0.92872105  0.20560424     0.16500
H635        H  0.70560201  0.93249003  0.20930772     0.19100
C636        C  0.78631210  0.94570579  0.22314495    -0.28500
H637        H  0.81314015  0.94222274  0.21673465     0.19100
H638        H  0.81034956  0.55861100  0.21279083     0.19100
H639        H  0.69382974  0.50455347  0.35968111     0.19200
H640        H  0.70310976  0.57135924  0.21024904     0.19100
C641        C  0.53233046  0.49711801  0.70091105     0.33000
C642        C  0.96138325  0.50254147  0.70139636     0.33000
C643        C  0.51447428  0.49834965  0.65692689    -0.03200
C644        C  0.51944404  0.97573593  0.72707077    -0.04000
C645        C  0.51763860  0.52638351  0.72313423    -0.03800
C646        C  0.97877209  0.50086345  0.65710784    -0.03200
C647        C  0.98380781  0.97150208  0.72767744    -0.04000
C648        C  0.98183434  0.52912616  0.72356828    -0.03800
C649        C  0.96974676  0.00057023  0.62084864    -0.29200
N650        N  0.49777452  0.00370596  0.59530239     0.17300
C651        C  0.52574282  0.00661983  0.62063427    -0.29200
H652        H  0.55165026  0.00856398  0.60914476     0.19200
C653        C  0.97749715  0.94448850  0.75081886    -0.28200
N654        N  0.50774423  0.93255924  0.76364753     0.16000
C655        C  0.53333957  0.95115381  0.74951445    -0.28200
C656        C  0.97476365  0.55507681  0.74865598    -0.28500
N657        N  0.50479012  0.56796964  0.76280481     0.16500
H658        H  0.94971154  0.56359090  0.75707357     0.19100
C659        C  0.53086993  0.55038995  0.74749449    -0.28500
H660        H  0.55750404  0.55417592  0.75470109     0.19100
H661        H  0.56007431  0.94774412  0.75656673     0.19100
H662        H  0.94399334  0.99728806  0.60942804     0.19200
H663        H  0.95272096  0.93519700  0.75897117     0.19100
C664        C  0.71281136  0.00906018  0.71014102     0.33000
C665        C  0.78352671  0.00159924  0.70956944     0.33000
C666        C  0.72991717  0.00494954  0.66584440    -0.03200
C667        C  0.72629841  0.52191994  0.72044049    -0.04000
C668        C  0.72715705  0.98072903  0.73468428    -0.03800
C669        C  0.76551441  0.00125001  0.66558746    -0.03200
C670        C  0.76197707  0.52489984  0.72030888    -0.04000
C671        C  0.76275300  0.97689278  0.73465001    -0.03800
C672        C  0.77468690  0.49468839  0.61332619    -0.29200
N673        N  0.74662546  0.49201232  0.58803935     0.17300
C674        C  0.71865191  0.49013814  0.61364760    -0.29200
H675        H  0.69268884  0.48830842  0.60234710     0.19200
C676        C  0.76960477  0.55049489  0.74556944    -0.28200
N677        N  0.74006625  0.56300268  0.76051960     0.16000
C678        C  0.71358544  0.54570415  0.74565655    -0.28200
C679        C  0.76962181  0.95145625  0.76056469    -0.28500
N680        N  0.73964642  0.93998934  0.77580877     0.16500
H681        H  0.79454781  0.94227575  0.76824131     0.19100
C682        C  0.71370566  0.95762964  0.76036294    -0.28500
H683        H  0.68705520  0.95421111  0.76782380     0.19100
H684        H  0.68719688  0.54917358  0.75434032     0.19100
H685        H  0.80051100  0.49709935  0.60173795     0.19200
H686        H  0.79486362  0.55844539  0.75420206     0.19100
Zn687      Zn  0.97201335  0.71327765  0.97370126     1.49700
Zn688      Zn  0.50524271  0.75077889  0.04630391     1.49400
Zn689      Zn  0.53508891  0.75038612  0.94284862     1.49100
Zn690      Zn  0.97661635  0.79242393  0.97609288     1.49500
O691        O  0.49765988  0.75172903  0.98449462    -1.81100
O692        O  0.96531500  0.68432218  0.02550202    -0.71700
O693        O  0.55356656  0.74904695  0.05049827    -0.71600
O694        O  0.53513541  0.71125946  0.90263183    -0.71100
O695        O  0.49056140  0.71142384  0.07668418    -0.71800
O696        O  0.99033567  0.68512720  0.92769735    -0.71400
O697        O  0.57395689  0.74826223  0.98324158    -0.71900
O698        O  0.99815702  0.81947187  0.93153383    -0.71300
O699        O  0.49185956  0.78942976  0.07992318    -0.72100
O700        O  0.53748355  0.78962052  0.90322337    -0.71500
O701        O  0.97123569  0.81997417  0.02939575    -0.71900
O702        O  0.93416765  0.78190561  0.94825318    -0.71900
O703        O  0.93101053  0.72943286  0.94712696    -0.71600
C704        C  0.47614033  0.68669717  0.06362015     0.80100
C705        C  0.57750585  0.74765823  0.02374851     0.80600
C706        C  0.51508370  0.68778822  0.90126304     0.79600
C707        C  0.52034872  0.81497682  0.90353257     0.80000
C708        C  0.47948091  0.81543827  0.06817309     0.81100
C709        C  0.92048815  0.75643288  0.93686422     0.80200
Zn710      Zn  0.75548748  0.74983065  0.91715115     1.49700
Zn711      Zn  0.73071211  0.70847198  0.98967979     1.49400
Zn712      Zn  0.79185192  0.75067684  0.01766347     1.49100
Zn713      Zn  0.72717890  0.78709148  0.99316807     1.49500
O714        O  0.75196124  0.74900518  0.97997846    -1.81100
O715        O  0.74236581  0.71015459  0.88483410    -0.71700
O716        O  0.75112104  0.68404552  0.03719448    -0.71600
O717        O  0.82794370  0.75269871  0.97312028    -0.71100
O718        O  0.72813364  0.67890594  0.93805830    -0.71800
O719        O  0.80327146  0.75271288  0.90813123    -0.71400
O720        O  0.79559161  0.71189372  0.05819902    -0.71900
O721        O  0.74585914  0.81326868  0.04069005    -0.71300
O722        O  0.68629720  0.71910647  0.01243987    -0.72100
O723        O  0.79423147  0.79005947  0.05754215    -0.71500
O724        O  0.68458072  0.77155383  0.01575271    -0.71900
O725        O  0.72187616  0.81742134  0.94323294    -0.71900
O726        O  0.73870913  0.78923891  0.88793893    -0.71600
C727        C  0.73372526  0.68335740  0.89852501     0.80100
C728        C  0.77607128  0.68815665  0.06210649     0.80600
C729        C  0.82885084  0.75385665  0.93235209     0.79600
C730        C  0.77264732  0.81202747  0.06306382     0.80000
C731        C  0.67231873  0.74466934  0.02286717     0.81100
C732        C  0.72817118  0.81483765  0.90358660     0.80200
C733        C  0.86043810  0.75684174  0.91317994    -0.10300
C734        C  0.89023231  0.75808577  0.91438630    -0.11800
C735        C  0.63999541  0.74342651  0.04017533    -0.10300
C736        C  0.61017983  0.74490146  0.03979861    -0.11800
C737        C  0.72581187  0.84208471  0.87621594    -0.15500
C738        C  0.72760636  0.86502945  0.85350755     0.08600
C739        C  0.73182755  0.89170921  0.82667774     0.10400
C740        C  0.73574807  0.91411589  0.80337574    -0.16300
C741        C  0.73731889  0.58819932  0.78955936    -0.15500
C742        C  0.73489344  0.60984284  0.81458670     0.08600
C743        C  0.73257941  0.63539976  0.84393453     0.10400
C744        C  0.73181138  0.65724302  0.86881860    -0.16300
C745        C  0.52450031  0.83854404  0.87046764    -0.15500
C746        C  0.52254483  0.85938135  0.84412299     0.08600
C747        C  0.01745782  0.88402638  0.81464453     0.10400
C748        C  0.51231052  0.90641603  0.79069119    -0.16300
C749        C  0.50859935  0.59394926  0.79054731    -0.15500
C750        C  0.01236963  0.61561052  0.81479380     0.08600
C751        C  0.01660989  0.64139609  0.84369135     0.10400
C752        C  0.51858931  0.66340226  0.86895158    -0.16300
C753        C  0.82254654  0.99829984  0.70942523    -0.15500
C754        C  0.85423500  0.99686933  0.70911455     0.08600
C755        C  0.89052236  0.50377833  0.70099462     0.10400
C756        C  0.92224228  0.50425971  0.70143938    -0.16300
C757        C  0.57135588  0.49410870  0.70076270    -0.15500
C758        C  0.60300362  0.49222758  0.70072174     0.08600
C759        C  0.64189903  0.01162292  0.70935672     0.10400
C760        C  0.67365915  0.01158396  0.71009345    -0.16300
C761        C  0.76543596  0.90374620  0.17638669    -0.15500
C762        C  0.77042071  0.88237476  0.15133882     0.08600
C763        C  0.77557257  0.85723137  0.12163274     0.10400
C764        C  0.77720952  0.83605945  0.09561855    -0.16300
C765        C  0.78016075  0.66565673  0.09644266    -0.15500
C766        C  0.77693264  0.64555041  0.12360282     0.08600
C767        C  0.76960895  0.62128405  0.15366585     0.10400
C768        C  0.76338409  0.59996875  0.17818053    -0.16300
C769        C  0.74732089  0.49628187  0.41880641    -0.16100
C770        C  0.74704564  0.49482956  0.45776831     0.08600
C771        C  0.74668942  0.49338823  0.50367270     0.10400
C772        C  0.74652742  0.49254072  0.54267678    -0.16300
C773        C  0.47735682  0.84074193  0.09894072    -0.15500
C774        C  0.47931193  0.86202472  0.12450767     0.08600
C775        C  0.98413171  0.88708574  0.15390044     0.10400
C776        C  0.48829686  0.90866692  0.17866727    -0.16300
C777        C  0.48692451  0.59156918  0.17061064    -0.15500
C778        C  0.48243867  0.61303257  0.14584770     0.08600
C779        C  0.47699135  0.63830412  0.11687371     0.10400
C780        C  0.47423494  0.66016360  0.09236332    -0.16300
C781        C  0.92347039  0.49508271  0.26315856    -0.15500
C782        C  0.89174788  0.49515412  0.26259816     0.08600
C783        C  0.85716801  0.00237597  0.27333972     0.10400
C784        C  0.82558917  0.00018882  0.27388786    -0.16300
C785        C  0.57261846  0.50642254  0.26413259    -0.15500
C786        C  0.60429567  0.50819937  0.26355737     0.08600
C787        C  0.64475390  0.99131108  0.26781603     0.10400
C788        C  0.67652990  0.99035088  0.26825495    -0.16300
C789        C  0.00111195  0.00054242  0.42673338    -0.15500
C790        C  0.50025707  0.00109188  0.46546783     0.08600
C791        C  0.99882624  0.00140391  0.51136596     0.10400
C792        C  0.99802243  0.00222205  0.55025299    -0.16300
loop_ 
_geom_bond_atom_site_label_1 
_geom_bond_atom_site_label_2 
_geom_bond_distance 
_geom_bond_site_symmetry_2 
_ccdc_geom_bond_type 
C1            C3   1.545       .  S
C1            C5   1.551       .  S
C1          C202   1.539   1_545  S
C1          C187   1.535       .  S
C2            C6   1.554       .  S
C2            C8   1.549   1_565  S
C2          C205   1.553       .  S
C2          C191   1.543       .  S
C3          C209   1.383       .  A
C3          C402   1.408   1_545  A
C4          C199   1.553       .  S
C4           C15   1.387       .  A
C4          C403   1.409       .  A
C5           C19   1.385       .  A
C5          C404   1.411       .  A
C6          C399   1.408   1_465  A
C6          C207   1.388       .  A
C7          C200   1.545       .  S
C7           C13   1.379       .  A
C7          C400   1.410   1_455  A
C8           C16   1.382       .  A
C8          C401   1.411   1_455  A
C9          C204   1.386       .  A
C9           H22   1.082       .  S
C9          N406   1.362   1_455  A
N10          C11   1.361       .  A
N10         C405   1.362       .  A
N10         C195   1.417       .  S
C11         C201   1.384       .  A
C11          H12   1.082       .  S
C13          H23   1.082       .  S
C13          N14   1.357       .  A
N14         C411   1.363   1_455  A
N14         C182   1.415       .  S
C15          H21   1.082       .  S
C15         N410   1.363       .  A
C16          H18   1.082       .  S
C16          N17   1.359       .  A
N17         C415   1.362   1_455  A
N17         C183   1.415       .  S
C19          H20   1.083       .  S
C19         N413   1.362       .  A
C24          C26   1.550       .  S
C24          C28   1.553       .  S
C24         C225   1.542       .  S
C24         C190   1.539       .  S
C25          C29   1.552       .  S
C25          C31   1.542       .  S
C25         C228   1.560       .  S
C25         C194   1.540       .  S
C26          C29   1.407       .  A
C26         C232   1.388       .  A
C27         C222   1.545   1_545  S
C27          C38   1.384       .  A
C27          C30   1.405       .  A
C28          C42   1.389       .  A
C28          C31   1.407       .  A
C29         C230   1.388       .  A
C30         C223   1.545   1_545  S
C30          C36   1.382       .  A
C31          C39   1.380       .  A
C32         C227   1.390       .  A
C32          H45   1.082       .  S
C32          N33   1.364       .  A
N33          C34   1.362       .  A
N33         C175   1.424       .  S
C34         C224   1.388       .  A
C34          H35   1.082       .  S
C36          H46   1.083       .  S
C36          N37   1.359       .  A
N37          C38   1.360       .  A
N37         C174   1.413       .  S
C38          H44   1.082       .  S
C39          H41   1.082       .  S
C39          N40   1.357       .  A
N40          C42   1.364       .  A
N40         C167   1.416       .  S
C42          H43   1.082       .  S
C47          C49   1.551       .  S
C47          C51   1.552       .  S
C47         C248   1.543   1_545  S
C47         C163   1.541       .  S
C48          C52   1.551   1_565  S
C48          C54   1.540   1_565  S
C48         C251   1.555       .  S
C48         C162   1.539       .  S
C49         C255   1.385       .  A
C49         C448   1.409   1_455  A
C50         C245   1.547       .  S
C50          C61   1.383       .  A
C50         C449   1.407   1_455  A
C51          C65   1.388       .  A
C51         C450   1.407   1_455  A
C52         C445   1.409       .  A
C52         C253   1.387       .  A
C53         C246   1.542       .  S
C53          C59   1.380       .  A
C53         C446   1.407       .  A
C54          C62   1.378       .  A
C54         C447   1.407       .  A
C55         C250   1.386       .  A
C55          H68   1.082       .  S
C55         N452   1.361       .  A
N56          C57   1.361   1_655  A
N56         C451   1.361       .  A
N56         C594   1.418       .  S
C57         C247   1.385       .  A
C57          H58   1.082       .  S
C59          H69   1.083       .  S
C59         N456   1.357       .  A
N60          C61   1.360   1_655  A
N60         C455   1.357       .  A
N60         C154   1.410       .  S
C61          H67   1.082       .  S
C62          H64   1.082       .  S
C62         N459   1.355       .  A
N63          C65   1.363   1_655  A
N63         C458   1.355       .  A
N63         C155   1.412       .  S
C65          H66   1.082       .  S
C70          C72   1.554       .  S
C70          C74   1.557       .  S
C70         C271   1.545       .  S
C70         C166   1.539       .  S
C71          C75   1.552       .  S
C71          C77   1.545       .  S
C71         C274   1.550       .  S
C71         C159   1.538       .  S
C72          C75   1.407       .  A
C72         C278   1.389       .  A
C73         C268   1.562       .  S
C73          C84   1.394       .  A
C73          C76   1.410       .  A
C74          C88   1.390       .  A
C74          C77   1.409       .  A
C75         C276   1.388       .  A
C76         C269   1.543       .  S
C76          C82   1.380       .  A
C77          C85   1.382       .  A
C78         C273   1.388   1_565  A
C78          H91   1.082       .  S
C78          N79   1.363       .  A
N79          C80   1.363   1_565  A
N79         C178   1.423       .  S
C80         C270   1.389       .  A
C80          H81   1.082       .  S
C82          H92   1.082       .  S
C82          N83   1.356       .  A
N83          C84   1.367       .  A
N83         C147   1.420       .  S
C84          H90   1.082       .  S
C85          H87   1.082       .  S
C85          N86   1.358       .  A
N86          C88   1.365       .  A
N86         C146   1.419       .  S
C88          H89   1.082       .  S
Zn93         O98   2.010   1_556  S
Zn93        O102   2.050       .  S
Zn93        O109   1.941   1_556  S
Zn93        O493   1.949       .  S
Zn94         O99   1.974   1_554  S
Zn94        O101   2.062       .  S
Zn94        O105   2.080       .  S
Zn94         O97   1.958   1_454  S
Zn95        O100   2.015   1_455  S
Zn95        O103   1.911       .  S
Zn95        O106   2.030   1_455  S
Zn95         O97   1.951   1_455  S
Zn96        O104   2.041       .  S
Zn96        O107   1.999   1_556  S
Zn96        O108   1.926   1_556  S
Zn96        O493   1.945       .  S
O97        Zn489   1.949       .  S
O97        Zn492   1.946       .  S
O98         C506   1.267       .  A
O99         C111   1.276       .  A
O100        C112   1.269       .  A
O101        C110   1.273       .  A
O102        C508   1.274       .  A
O103        C111   1.262       .  A
O104        C509   1.273       .  A
O105        C114   1.277       .  A
O106        C113   1.271       .  A
O107        C510   1.266       .  A
O108        C115   1.266       .  A
O109        C115   1.269       .  A
C110        O494   1.267   1_455  A
C110        C186   1.452       .  S
C111        C142   1.384       .  S
C112        O498   1.274       .  A
C112        C158   1.448       .  S
C113        O500   1.273       .  A
C113        C151   1.447       .  S
C114        O503   1.266   1_455  A
C114        C179   1.453       .  S
C115        C140   1.382       .  S
Zn116       O121   2.111       .  S
Zn116       O125   1.995       .  S
Zn116       O132   2.090       .  S
Zn116       O120   1.956       .  S
Zn117       O122   2.038   1_556  S
Zn117       O124   1.989       .  S
Zn117       O128   1.926       .  S
Zn117       O120   1.954       .  S
Zn118       O123   1.898       .  S
Zn118       O126   2.046       .  S
Zn118       O129   2.019       .  S
Zn118       O120   1.971   1_554  S
Zn119       O127   2.064   1_556  S
Zn119       O130   1.948       .  S
Zn119       O131   2.014       .  S
Zn119       O120   1.938       .  S
O121        C133   1.281       .  A
O122        C134   1.271       .  A
O123        C135   1.260       .  A
O124        C133   1.265       .  A
O125        C135   1.281   1_556  A
O126        C134   1.273       .  A
O127        C136   1.275       .  A
O128        C137   1.266       .  A
O129        C136   1.269       .  A
O130        C137   1.272       .  A
O131        C138   1.268       .  A
O132        C138   1.278       .  A
C133        C150   1.459       .  S
C134        C171   1.452       .  S
C135        C139   1.384       .  S
C136        C170   1.454       .  S
C137        C141   1.382       .  S
C138        C143   1.459       .  S
C139        C140   1.171       .  T
C141        C142   1.173       .  T
C143        C144   1.221       .  T
C144        C145   1.436       .  S
C145        C146   1.221       .  T
C147        C148   1.222       .  T
C148        C149   1.438       .  S
C149        C150   1.221       .  T
C151        C152   1.213       .  T
C152        C549   1.424       .  S
C153        C550   1.213       .  T
C153        C548   1.424       .  S
C154        C549   1.213       .  T
C155        C552   1.215       .  T
C156        C551   1.215       .  T
C156        C157   1.427       .  S
C157        C554   1.214       .  T
C158        C553   1.214       .  T
C159        C160   1.246       .  T
C160        C359   1.477       .  S
C161        C162   1.246       .  T
C161        C358   1.477       .  S
C163        C164   1.247       .  T
C164        C363   1.479       .  S
C165        C166   1.246       .  T
C165        C362   1.477       .  S
C167        C168   1.218       .  T
C168        C169   1.431       .  S
C169        C170   1.217       .  T
C171        C172   1.216       .  T
C172        C173   1.428       .  S
C173        C174   1.216       .  T
C175        C176   1.225       .  T
C176        C177   1.443       .  S
C177        C178   1.225       .  T
C179        C180   1.217       .  T
C180        C577   1.430       .  S
C181        C578   1.217       .  T
C181        C576   1.430       .  S
C182        C577   1.217       .  T
C183        C184   1.217       .  T
C184        C185   1.429       .  S
C185        C186   1.216       .  T
C187        C188   1.244       .  T
C188        C387   1.474       .  S
C189        C190   1.246       .  T
C189        C386   1.477       .  S
C191        C192   1.248       .  T
C192        C391   1.481       .  S
C193        C194   1.247       .  T
C193        C390   1.479       .  S
C195        C592   1.219       .  T
C196        C591   1.219       .  T
C196        C593   1.434       .  S
C197        C198   1.219       .  T
C197        C592   1.434       .  S
C198        N452   1.417       .  S
C199        C201   1.549       .  S
C199        C203   1.542       .  S
C199        C385   1.539       .  S
C200        C204   1.551       .  S
C200        C206   1.551       .  S
C200        C389   1.541       .  S
C201        C600   1.409       .  A
C202        C213   1.379       .  A
C202        C601   1.407       .  A
C203        C217   1.379       .  A
C203        C602   1.407       .  A
C204        C597   1.409   1_455  A
C205        C598   1.407   1_455  A
C205        C211   1.388       .  A
C206        C599   1.407   1_455  A
C206        C214   1.388       .  A
C207        H220   1.083       .  S
C207        N604   1.363   1_565  A
N208        C603   1.363   1_545  A
N208        C209   1.360       .  A
N208        C393   1.419       .  S
C209        H210   1.082       .  S
C211        H221   1.082       .  S
C211        N212   1.364   1_455  A
N212        C609   1.356       .  A
N212        C380   1.415       .  S
C213        H219   1.083       .  S
C213        N608   1.356       .  A
C214        H216   1.082       .  S
C214        N215   1.363   1_455  A
N215        C613   1.357       .  A
N215        C381   1.414       .  S
C217        H218   1.082       .  S
C217        N611   1.357       .  A
C222        C224   1.552       .  S
C222        C226   1.545       .  S
C222        C388   1.535   1_565  S
C223        C227   1.555       .  S
C223        C229   1.562       .  S
C223        C392   1.543       .  S
C224        C227   1.408       .  A
C225        C236   1.378       .  A
C225        C228   1.410       .  A
C226        C240   1.382       .  A
C226        C229   1.410       .  A
C228        C234   1.392       .  A
C229        C237   1.393       .  A
C230        H243   1.082       .  S
C230        N231   1.362       .  A
N231        C232   1.363       .  A
N231        C373   1.422       .  S
C232        H233   1.082       .  S
C234        H244   1.082       .  S
C234        N235   1.366       .  A
N235        C236   1.356       .  A
N235        C372   1.417       .  S
C236        H242   1.082       .  S
C237        H239   1.082       .  S
C237        N238   1.367       .  A
N238        C240   1.358       .  A
N238        C365   1.421       .  S
C240        H241   1.083       .  S
C245        C247   1.549       .  S
C245        C249   1.547       .  S
C245        C361   1.539       .  S
C246        C250   1.550       .  S
C246        C252   1.558       .  S
C246        C360   1.539       .  S
C247        C646   1.408   1_455  A
C248        C259   1.379       .  A
C248        C647   1.409   1_455  A
C249        C263   1.383       .  A
C249        C648   1.410   1_455  A
C250        C643   1.408       .  A
C251        C644   1.409       .  A
C251        C257   1.389       .  A
C252        C645   1.410       .  A
C252        C260   1.391       .  A
C253        H266   1.082   1_545  S
C253        N650   1.362       .  A
N254        C649   1.362       .  A
N254        C255   1.361   1_655  A
N254        C792   1.419       .  S
C255        H256   1.083       .  S
C257        H267   1.082       .  S
C257        N654   1.364       .  A
N258        C653   1.365   1_455  A
N258        C259   1.357       .  A
N258        C352   1.417       .  S
C259        H265   1.083       .  S
C260        H262   1.082       .  S
C260        N657   1.365       .  A
N261        C656   1.365   1_455  A
N261        C263   1.359       .  A
N261        C353   1.421       .  S
C263        H264   1.082       .  S
C268        C270   1.554       .  S
C268        C272   1.544   1_545  S
C268        C364   1.541       .  S
C269        C273   1.550       .  S
C269        C275   1.551   1_545  S
C269        C357   1.539   1_545  S
C270        C273   1.407       .  A
C271        C282   1.384       .  A
C271        C274   1.407       .  A
C272        C286   1.381       .  A
C272        C275   1.407       .  A
C274        C280   1.386       .  A
C275        C283   1.387       .  A
C276        H289   1.082       .  S
C276        N277   1.362       .  A
N277        C278   1.363       .  A
N277        C376   1.423       .  S
C278        H279   1.082       .  S
C280        H290   1.083       .  S
C280        N281   1.361       .  A
N281        C282   1.360       .  A
N281        C345   1.417       .  S
C282        H288   1.082       .  S
C283        H285   1.082       .  S
C283        N284   1.362       .  A
N284        C286   1.358       .  A
N284        C344   1.415       .  S
C286        H287   1.082       .  S
Zn291       O296   2.062   1_556  S
Zn291       O300   2.013       .  S
Zn291       O307   1.940       .  S
Zn291       O691   1.953       .  S
Zn292       O297   1.904       .  S
Zn292       O299   2.021   1_455  S
Zn292       O303   2.033   1_455  S
Zn292       O295   1.962   1_454  S
Zn293       O298   2.098       .  S
Zn293       O301   1.985       .  S
Zn293       O304   2.093       .  S
Zn293       O295   1.967   1_455  S
Zn294       O302   2.004       .  S
Zn294       O305   2.058   1_556  S
Zn294       O306   1.935       .  S
Zn294       O691   1.958       .  S
O295       Zn687   1.953       .  S
O295       Zn690   1.957       .  S
O296        C704   1.275       .  A
O297        C309   1.262       .  A
O298        C310   1.278       .  A
O299        C308   1.270       .  A
O300        C706   1.267       .  A
O301        C309   1.278   1_556  A
O302        C707   1.267       .  A
O303        C312   1.271       .  A
O304        C311   1.278       .  A
O305        C708   1.274       .  A
O306        C313   1.268       .  A
O307        C313   1.270       .  A
C308        O692   1.275       .  A
C308        C384   1.453       .  S
C309        C340   1.383       .  S
C310        O696   1.267   1_455  A
C310        C356   1.462       .  S
C311        O698   1.267   1_455  A
C311        C349   1.457       .  S
C312        O701   1.274       .  A
C312        C377   1.454       .  S
C313        C338   1.383       .  S
Zn314       O319   2.046       .  S
Zn314       O323   1.901       .  S
Zn314       O330   2.031       .  S
Zn314       O318   1.976       .  S
Zn315       O320   1.989   1_556  S
Zn315       O322   2.058       .  S
Zn315       O326   1.938   1_556  S
Zn315       O318   1.951       .  S
Zn316       O321   1.992   1_554  S
Zn316       O324   2.098       .  S
Zn316       O327   2.103       .  S
Zn316       O318   1.963   1_554  S
Zn317       O325   2.005   1_556  S
Zn317       O328   1.936   1_556  S
Zn317       O329   2.048       .  S
Zn317       O318   1.945       .  S
O319        C331   1.272       .  A
O320        C332   1.265       .  A
O321        C333   1.280       .  A
O322        C331   1.274       .  A
O323        C333   1.260       .  A
O324        C332   1.280       .  A
O325        C334   1.266       .  A
O326        C335   1.268       .  A
O327        C334   1.279       .  A
O328        C335   1.269       .  A
O329        C336   1.273       .  A
O330        C336   1.271       .  A
C331        C348   1.458       .  S
C332        C369   1.454       .  S
C333        C337   1.384       .  S
C334        C368   1.461       .  S
C335        C339   1.382       .  S
C336        C341   1.453       .  S
C337        C338   1.172       .  T
C339        C340   1.173       .  T
C341        C342   1.217       .  T
C342        C343   1.430       .  S
C343        C344   1.217       .  T
C345        C346   1.219       .  T
C346        C347   1.434       .  S
C347        C348   1.219       .  T
C349        C350   1.219       .  T
C350        C747   1.434       .  S
C351        C748   1.219       .  T
C351        C746   1.434       .  S
C352        C747   1.219       .  T
C353        C750   1.222       .  T
C354        C749   1.223       .  T
C354        C355   1.439       .  S
C355        C752   1.222       .  T
C356        C751   1.222       .  T
C357        C358   1.246       .  T
C359        C360   1.246       .  T
C361        C362   1.246       .  T
C363        C364   1.247       .  T
C365        C366   1.223       .  T
C366        C367   1.439       .  S
C367        C368   1.222       .  T
C369        C370   1.218       .  T
C370        C371   1.433       .  S
C371        C372   1.219       .  T
C373        C374   1.224       .  T
C374        C375   1.441       .  S
C375        C376   1.224       .  T
C377        C378   1.217       .  T
C378        C775   1.430       .  S
C379        C776   1.217       .  T
C379        C774   1.430       .  S
C380        C775   1.217       .  T
C381        C382   1.217       .  T
C382        C383   1.430       .  S
C383        C384   1.217       .  T
C385        C386   1.246       .  T
C387        C388   1.244       .  T
C389        C390   1.247       .  T
C391        C392   1.248       .  T
C393        C790   1.220       .  T
C394        C789   1.220       .  T
C394        C791   1.436   1_455  S
C395        C396   1.221       .  T
C395        C790   1.436       .  S
C396        N650   1.419       .  S
C397        C399   1.545       .  S
C397        C401   1.552       .  S
C397        C598   1.539   1_545  S
C397        C583   1.535       .  S
C398        C402   1.554       .  S
C398        C404   1.549   1_565  S
C398        C601   1.554       .  S
C398        C587   1.543       .  S
C399        C605   1.383       .  A
C400        C595   1.553       .  S
C400        C411   1.387       .  A
C401        C415   1.386       .  A
C402        C603   1.388       .  A
C403        C596   1.544       .  S
C403        C409   1.379       .  A
C404        C412   1.382       .  A
C405        C600   1.386       .  A
C405        H418   1.082       .  S
N406        C407   1.361       .  A
N406        C591   1.418       .  S
C407        C597   1.384       .  A
C407        H408   1.082       .  S
C409        H419   1.082       .  S
C409        N410   1.357       .  A
N410        C578   1.415       .  S
C411        H417   1.082       .  S
C412        H414   1.082       .  S
C412        N413   1.359       .  A
N413        C579   1.414       .  S
C415        H416   1.083       .  S
C420        C422   1.551       .  S
C420        C424   1.554       .  S
C420        C621   1.543       .  S
C420        C586   1.539       .  S
C421        C425   1.552       .  S
C421        C427   1.542       .  S
C421        C624   1.559       .  S
C421        C590   1.539       .  S
C422        C628   1.388       .  A
C422        C425   1.407       .  A
C423        C618   1.544   1_545  S
C423        C434   1.383       .  A
C423        C426   1.405       .  A
C424        C438   1.389       .  A
C424        C427   1.407       .  A
C425        C626   1.388       .  A
C426        C619   1.545   1_545  S
C426        C432   1.382       .  A
C427        C435   1.380       .  A
C428        C623   1.390       .  A
C428        H441   1.082       .  S
C428        N429   1.364       .  A
N429        C430   1.362       .  A
N429        C571   1.424       .  S
C430        C620   1.388       .  A
C430        H431   1.082       .  S
C432        H442   1.083       .  S
C432        N433   1.359       .  A
N433        C434   1.360       .  A
N433        C570   1.413       .  S
C434        H440   1.082       .  S
C435        H437   1.082       .  S
C435        N436   1.357       .  A
N436        C438   1.364       .  A
N436        C563   1.416       .  S
C438        H439   1.082       .  S
C443        C445   1.551       .  S
C443        C447   1.552       .  S
C443        C644   1.543   1_545  S
C443        C559   1.541       .  S
C444        C448   1.551   1_565  S
C444        C450   1.540   1_565  S
C444        C647   1.555       .  S
C444        C558   1.539       .  S
C445        C651   1.385       .  A
C446        C641   1.546       .  S
C446        C457   1.382       .  A
C447        C461   1.388       .  A
C448        C649   1.387       .  A
C449        C642   1.542       .  S
C449        C455   1.380       .  A
C450        C458   1.378       .  A
C451        C646   1.386       .  A
C451        H464   1.082       .  S
N452        C453   1.361       .  A
C453        C643   1.385       .  A
C453        H454   1.082       .  S
C455        H465   1.083       .  S
N456        C457   1.360       .  A
N456        C550   1.410       .  S
C457        H463   1.082       .  S
C458        H460   1.082       .  S
N459        C461   1.363       .  A
N459        C551   1.412       .  S
C461        H462   1.082       .  S
C466        C468   1.554       .  S
C466        C470   1.557       .  S
C466        C667   1.545       .  S
C466        C562   1.538       .  S
C467        C471   1.552       .  S
C467        C473   1.546       .  S
C467        C670   1.550       .  S
C467        C555   1.538       .  S
C468        C674   1.389       .  A
C468        C471   1.407       .  A
C469        C664   1.562       .  S
C469        C480   1.394       .  A
C469        C472   1.410       .  A
C470        C484   1.390       .  A
C470        C473   1.409       .  A
C471        C672   1.388       .  A
C472        C665   1.543       .  S
C472        C478   1.380       .  A
C473        C481   1.382       .  A
C474        C669   1.388   1_565  A
C474        H487   1.082       .  S
C474        N475   1.363       .  A
N475        C476   1.363   1_565  A
N475        C574   1.423       .  S
C476        C666   1.389       .  A
C476        H477   1.082       .  S
C478        H488   1.082       .  S
C478        N479   1.357       .  A
N479        C480   1.367       .  A
N479        C543   1.420       .  S
C480        H486   1.082       .  S
C481        H483   1.082       .  S
C481        N482   1.359       .  A
N482        C484   1.365       .  A
N482        C542   1.419       .  S
C484        H485   1.082       .  S
Zn489       O494   2.010   1_556  S
Zn489       O498   2.050       .  S
Zn489       O505   1.941   1_556  S
Zn490       O495   1.973   1_554  S
Zn490       O497   2.060       .  S
Zn490       O501   2.079       .  S
Zn490       O493   1.957   1_554  S
Zn491       O496   2.016       .  S
Zn491       O499   1.911       .  S
Zn491       O502   2.029       .  S
Zn491       O493   1.950       .  S
Zn492       O500   2.041       .  S
Zn492       O503   1.999   1_556  S
Zn492       O504   1.925   1_556  S
O495        C507   1.276       .  A
O496        C508   1.269       .  A
O497        C506   1.273       .  A
O499        C507   1.262       .  A
O501        C510   1.277       .  A
O502        C509   1.271       .  A
O504        C511   1.266       .  A
O505        C511   1.269       .  A
C506        C582   1.451       .  S
C507        C538   1.383       .  S
C508        C554   1.449       .  S
C509        C547   1.447       .  S
C510        C575   1.453       .  S
C511        C536   1.382       .  S
Zn512       O517   2.112       .  S
Zn512       O521   1.995       .  S
Zn512       O528   2.090       .  S
Zn512       O516   1.955       .  S
Zn513       O518   2.036   1_556  S
Zn513       O520   1.989       .  S
Zn513       O524   1.924       .  S
Zn513       O516   1.954       .  S
Zn514       O519   1.897       .  S
Zn514       O522   2.047       .  S
Zn514       O525   2.018       .  S
Zn514       O516   1.970   1_554  S
Zn515       O523   2.066   1_556  S
Zn515       O526   1.949       .  S
Zn515       O527   2.015       .  S
Zn515       O516   1.937       .  S
O517        C529   1.281       .  A
O518        C530   1.271       .  A
O519        C531   1.260       .  A
O520        C529   1.265       .  A
O521        C531   1.281   1_556  A
O522        C530   1.273       .  A
O523        C532   1.275       .  A
O524        C533   1.266       .  A
O525        C532   1.269       .  A
O526        C533   1.272       .  A
O527        C534   1.268       .  A
O528        C534   1.278       .  A
C529        C546   1.459       .  S
C530        C567   1.452       .  S
C531        C535   1.383       .  S
C532        C566   1.454       .  S
C533        C537   1.382       .  S
C534        C539   1.460       .  S
C535        C536   1.171       .  T
C537        C538   1.172       .  T
C539        C540   1.221       .  T
C540        C541   1.436       .  S
C541        C542   1.221       .  T
C543        C544   1.222       .  T
C544        C545   1.438       .  S
C545        C546   1.221       .  T
C547        C548   1.213       .  T
C552        C553   1.426       .  S
C555        C556   1.246       .  T
C556        C755   1.477       .  S
C557        C558   1.246       .  T
C557        C754   1.477       .  S
C559        C560   1.247       .  T
C560        C759   1.479       .  S
C561        C562   1.246       .  T
C561        C758   1.476       .  S
C563        C564   1.218       .  T
C564        C565   1.431       .  S
C565        C566   1.218       .  T
C567        C568   1.216       .  T
C568        C569   1.428       .  S
C569        C570   1.215       .  T
C571        C572   1.225       .  T
C572        C573   1.442       .  S
C573        C574   1.224       .  T
C575        C576   1.217       .  T
C579        C580   1.216       .  T
C580        C581   1.429       .  S
C581        C582   1.216       .  T
C583        C584   1.244       .  T
C584        C783   1.473       .  S
C585        C586   1.246       .  T
C585        C782   1.477       .  S
C587        C588   1.248       .  T
C588        C787   1.481       .  S
C589        C590   1.246       .  T
C589        C786   1.478       .  S
C593        C594   1.219       .  T
C595        C597   1.549       .  S
C595        C599   1.541       .  S
C595        C781   1.539       .  S
C596        C600   1.551       .  S
C596        C602   1.551       .  S
C596        C785   1.540       .  S
C598        C609   1.379       .  A
C599        C613   1.379       .  A
C601        C607   1.388       .  A
C602        C610   1.387       .  A
C603        H616   1.083       .  S
N604        C605   1.360   1_455  A
N604        C789   1.419       .  S
C605        H606   1.082       .  S
C607        H617   1.081       .  S
C607        N608   1.364       .  A
N608        C776   1.415       .  S
C609        H615   1.083       .  S
C610        H612   1.082       .  S
C610        N611   1.363       .  A
N611        C777   1.414       .  S
C613        H614   1.082       .  S
C618        C620   1.551       .  S
C618        C622   1.544       .  S
C618        C784   1.535   1_565  S
C619        C623   1.555       .  S
C619        C625   1.562       .  S
C619        C788   1.543       .  S
C620        C623   1.408       .  A
C621        C632   1.379       .  A
C621        C624   1.410       .  A
C622        C636   1.382       .  A
C622        C625   1.410       .  A
C624        C630   1.392       .  A
C625        C633   1.393       .  A
C626        H639   1.082       .  S
C626        N627   1.362       .  A
N627        C628   1.363       .  A
N627        C769   1.422       .  S
C628        H629   1.082       .  S
C630        H640   1.082       .  S
C630        N631   1.366       .  A
N631        C632   1.356       .  A
N631        C768   1.417       .  S
C632        H638   1.082       .  S
C633        H635   1.082       .  S
C633        N634   1.367       .  A
N634        C636   1.358       .  A
N634        C761   1.421       .  S
C636        H637   1.083       .  S
C641        C643   1.548       .  S
C641        C645   1.547       .  S
C641        C757   1.538       .  S
C642        C646   1.550       .  S
C642        C648   1.558       .  S
C642        C756   1.539       .  S
C644        C655   1.380       .  A
C645        C659   1.383       .  A
C647        C653   1.389       .  A
C648        C656   1.391       .  A
C649        H662   1.082   1_545  S
N650        C651   1.361       .  A
C651        H652   1.083       .  S
C653        H663   1.082       .  S
N654        C655   1.357       .  A
N654        C748   1.417       .  S
C655        H661   1.083       .  S
C656        H658   1.082       .  S
N657        C659   1.359       .  A
N657        C749   1.421       .  S
C659        H660   1.082       .  S
C664        C666   1.553       .  S
C664        C668   1.544   1_545  S
C664        C760   1.541       .  S
C665        C669   1.550       .  S
C665        C671   1.551   1_545  S
C665        C753   1.539   1_545  S
C666        C669   1.407       .  A
C667        C678   1.384       .  A
C667        C670   1.407       .  A
C668        C682   1.381       .  A
C668        C671   1.407       .  A
C670        C676   1.386       .  A
C671        C679   1.386       .  A
C672        H685   1.082       .  S
C672        N673   1.362       .  A
N673        C674   1.363       .  A
N673        C772   1.423       .  S
C674        H675   1.082       .  S
C676        H686   1.083       .  S
C676        N677   1.361       .  A
N677        C678   1.359       .  A
N677        C741   1.417       .  S
C678        H684   1.082       .  S
C679        H681   1.082       .  S
C679        N680   1.362       .  A
N680        C682   1.358       .  A
N680        C740   1.415       .  S
C682        H683   1.082       .  S
Zn687       O692   2.061   1_556  S
Zn687       O696   2.014       .  S
Zn687       O703   1.941       .  S
Zn688       O693   1.903       .  S
Zn688       O695   2.021       .  S
Zn688       O699   2.033       .  S
Zn688       O691   1.962   1_554  S
Zn689       O694   2.099       .  S
Zn689       O697   1.985       .  S
Zn689       O700   2.093       .  S
Zn689       O691   1.967       .  S
Zn690       O698   2.003       .  S
Zn690       O701   2.058   1_556  S
Zn690       O702   1.935       .  S
O693        C705   1.262       .  A
O694        C706   1.278       .  A
O695        C704   1.270       .  A
O697        C705   1.278   1_556  A
O699        C708   1.271       .  A
O700        C707   1.278       .  A
O702        C709   1.268       .  A
O703        C709   1.270       .  A
C704        C780   1.453       .  S
C705        C736   1.383       .  S
C706        C752   1.462       .  S
C707        C745   1.457       .  S
C708        C773   1.454       .  S
C709        C734   1.383       .  S
Zn710       O715   2.046       .  S
Zn710       O719   1.902       .  S
Zn710       O726   2.031       .  S
Zn710       O714   1.976       .  S
Zn711       O716   1.990   1_556  S
Zn711       O718   2.059       .  S
Zn711       O722   1.939   1_556  S
Zn711       O714   1.951       .  S
Zn712       O717   1.992   1_554  S
Zn712       O720   2.098       .  S
Zn712       O723   2.103       .  S
Zn712       O714   1.963   1_554  S
Zn713       O721   2.005   1_556  S
Zn713       O724   1.935   1_556  S
Zn713       O725   2.046       .  S
Zn713       O714   1.945       .  S
O715        C727   1.272       .  A
O716        C728   1.265       .  A
O717        C729   1.280       .  A
O718        C727   1.274       .  A
O719        C729   1.260       .  A
O720        C728   1.280       .  A
O721        C730   1.266       .  A
O722        C731   1.268       .  A
O723        C730   1.279       .  A
O724        C731   1.269       .  A
O725        C732   1.273       .  A
O726        C732   1.271       .  A
C727        C744   1.458       .  S
C728        C765   1.455       .  S
C729        C733   1.384       .  S
C730        C764   1.461       .  S
C731        C735   1.382       .  S
C732        C737   1.452       .  S
C733        C734   1.172       .  T
C735        C736   1.173       .  T
C737        C738   1.216       .  T
C738        C739   1.429       .  S
C739        C740   1.217       .  T
C741        C742   1.219       .  T
C742        C743   1.434       .  S
C743        C744   1.219       .  T
C745        C746   1.219       .  T
C750        C751   1.439       .  S
C753        C754   1.246       .  T
C755        C756   1.246       .  T
C757        C758   1.245       .  T
C759        C760   1.247       .  T
C761        C762   1.223       .  T
C762        C763   1.439       .  S
C763        C764   1.222       .  T
C765        C766   1.218       .  T
C766        C767   1.433       .  S
C767        C768   1.219       .  T
C769        C770   1.224       .  T
C770        C771   1.441       .  S
C771        C772   1.224       .  T
C773        C774   1.217       .  T
C777        C778   1.217       .  T
C778        C779   1.430       .  S
C779        C780   1.217       .  T
C781        C782   1.246       .  T
C783        C784   1.244       .  T
C785        C786   1.246       .  T
C787        C788   1.248       .  T
C791        C792   1.221       .  T
