geometry optimzed in LAMMPS
_audit_creation_date              2020-11-30 
_audit_creation_method            'lammps2cif' 
_symmetry_space_group_name_H-M    'P1' 
_symmetry_Int_Tables_number       1 
_symmetry_cell_setting            triclinic 
loop_ 
_symmetry_equiv_pos_as_xyz 
  x,y,z 
_cell_length_a                    24.90585113 
_cell_length_b                    24.65467385731289 
_cell_length_c                    24.4038802441607 
_cell_angle_alpha                 89.21051405477927 
_cell_angle_beta                  88.84411702364095 
_cell_angle_gamma                 91.12494013738493 
loop_ 
_atom_site_label 
_atom_site_type_symbol 
_atom_site_fract_x 
_atom_site_fract_y 
_atom_site_fract_z 
_atom_site_charge 
O1          O  0.53929691  0.09734688  0.89775222    -0.78100
O2          O  0.54788531  0.07671199  0.58477036    -0.79700
O3          O  0.65992597  0.07900772  0.73318749    -0.76700
O4          O  0.52201691  0.19310540  0.75154311    -0.75100
O5          O  0.43059064  0.18275351  0.74388281    -0.76900
O6          O  0.66587675  0.98668098  0.74249767    -0.77800
O7          O  0.58308336  0.13800304  0.64484807    -0.79100
O8          O  0.59302664  0.13700631  0.83029386    -0.79400
Eu9        Eu  0.56316008  0.10292320  0.74020337     2.39200
O10         O  0.48846259  0.08830586  0.68357510    -0.86900
O11         O  0.56465531  0.03109631  0.80537898    -0.90500
C12         C  0.57736803  0.13015114  0.88091782     1.04200
C13         C  0.57272496  0.12156626  0.59577149     1.04000
C14         C  0.68666832  0.03437372  0.73316380     1.03900
C15         C  0.47358222  0.21142984  0.75322399     1.01800
H16         H  0.60388562  0.02063106  0.66925607     0.31500
O17         O  0.57274757  0.01995497  0.69350204    -0.99300
H18         H  0.47729919  0.12769582  0.81407917     0.31600
O19         O  0.48147615  0.09619710  0.79155538    -1.01800
O20         O  0.44931435  0.92909896  0.59840376    -0.79100
O21         O  0.41480614  0.97115023  0.90621225    -0.78600
O22         O  0.60196870  0.89939058  0.67605304    -0.77000
O23         O  0.38581709  0.11335523  0.64175140    -0.80400
O24         O  0.36169587  0.11875813  0.81581836    -0.78200
O25         O  0.60360544  0.92980310  0.85546175    -0.76900
O26         O  0.46425896  0.84021690  0.76883426    -0.78400
O27         O  0.32319465  0.95042764  0.73665965    -0.80300
O28         O  0.55586095  0.85266594  0.76925283    -0.77100
O29         O  0.31565280  0.04201985  0.72212744    -0.79800
O30         O  0.56434156  0.93994464  0.60150089    -0.75500
O31         O  0.54495468  0.97375344  0.91212162    -0.75500
O32         O  0.41102940  0.08840886  0.88765235    -0.75200
O33         O  0.43601453  0.06054383  0.58473773    -0.78700
O34         O  0.40095040  0.88279753  0.66573626    -0.78100
O35         O  0.37701017  0.90993727  0.84782057    -0.76400
Eu36       Eu  0.49852193  0.00558820  0.63766745     2.39800
Eu37       Eu  0.48267605  0.02659833  0.85636512     2.39600
Eu38       Eu  0.57493511  0.94870763  0.75947124     2.38400
Eu39       Eu  0.40681920  0.08444482  0.73441265     2.39900
Eu40       Eu  0.41865056  0.92859606  0.75424929     2.39800
O41         O  0.40901565  0.01224589  0.79878256    -0.90800
O42         O  0.50012015  0.93588413  0.70378338    -0.89700
C43         C  0.41738995  0.89044457  0.61539797     1.04300
C44         C  0.38124420  0.93253130  0.89546224     1.03100
C45         C  0.59345239  0.90328521  0.62415667     1.02500
C46         C  0.40163025  0.09800397  0.59404989     1.04500
C47         C  0.37189672  0.11551758  0.86713257     1.03400
C48         C  0.58549235  0.94284391  0.90364769     1.02200
C49         C  0.51308144  0.82286625  0.77218144     1.02300
C50         C  0.29565989  0.99302426  0.72495541     1.04900
H51         H  0.49422512  0.91485823  0.83857826     0.32300
O52         O  0.49314119  0.94366699  0.81146670    -1.03000
H53         H  0.38878205  0.99541227  0.66354923     0.34300
O54         O  0.41750093  0.00103198  0.68899958    -1.05500
C55         C  0.64517275  0.21075269  0.47991502    -0.00500
O56         O  0.55477947  0.07260595  0.39842031    -0.78100
O57         O  0.55370092  0.05746560  0.08911577    -0.79700
O58         O  0.65567476  0.06835417  0.25291169    -0.76700
O59         O  0.52074392  0.18405881  0.23327599    -0.75100
O60         O  0.42941826  0.17412447  0.24529162    -0.76900
O61         O  0.65991987  0.97617686  0.26486045    -0.77800
O62         O  0.59712285  0.11546259  0.14654376    -0.79100
O63         O  0.59488342  0.12404526  0.32927492    -0.79400
Eu64       Eu  0.56075171  0.09287398  0.24128446     2.39200
O65         O  0.48156926  0.08479202  0.19121345    -0.86900
O66         O  0.56184313  0.01858203  0.30309835    -0.90500
C67         C  0.58900774  0.10829030  0.37973563     1.04200
C68         C  0.58921206  0.09478630  0.09861994     1.04000
C69         C  0.68140102  0.02443838  0.26317053     1.03900
C70         C  0.47252848  0.20273475  0.23712071     1.01800
H71         H  0.59670524  0.00968970  0.17071630     0.31500
O72         O  0.56490211  0.01042736  0.19388769    -0.99300
H73         H  0.48208852  0.12270996  0.32183036     0.31600
O74         O  0.48343137  0.09002307  0.30054418    -1.01800
O75         O  0.42598875  0.93687461  0.10091217    -0.79100
O76         O  0.42354441  0.95615240  0.41261696    -0.78600
O77         O  0.59214337  0.89998125  0.16628780    -0.77000
O78         O  0.37491809  0.11278398  0.16106220    -0.80400
O79         O  0.36887111  0.11377686  0.33448050    -0.78200
O80         O  0.59328048  0.90559685  0.35032921    -0.76900
O81         O  0.45491554  0.83233810  0.25004482    -0.78400
O82         O  0.31811392  0.94544573  0.26054650    -0.80300
O83         O  0.54652824  0.84003165  0.25592140    -0.77100
O84         O  0.31371338  0.03823069  0.25749595    -0.79800
O85         O  0.53737486  0.93525705  0.10075314    -0.75500
O86         O  0.54094144  0.95207326  0.41105705    -0.75500
O87         O  0.41891859  0.07583585  0.40202352    -0.75200
O88         O  0.43122658  0.07497190  0.09772830    -0.78700
O89         O  0.38299771  0.88708323  0.16941517    -0.78100
O90         O  0.38406035  0.89542675  0.35488313    -0.76400
Eu91       Eu  0.48534134  0.00478116  0.14235095     2.39800
Eu92       Eu  0.48529104  0.01468041  0.36032018     2.39600
Eu93       Eu  0.56828076  0.93677815  0.25703083     2.38400
Eu94       Eu  0.40484550  0.07866088  0.24910719     2.39900
Eu95       Eu  0.41296749  0.92258953  0.25870767     2.39800
O96         O  0.40851965  0.00367097  0.30830055    -0.90800
O97         O  0.49078283  0.93167880  0.20431353    -0.89700
C98         C  0.39377584  0.89856328  0.11838793     1.04300
C99         C  0.39234444  0.91544209  0.40314559     1.03100
C100        C  0.57378317  0.90332414  0.11714921     1.02500
C101        C  0.39414936  0.10811446  0.11213801     1.04500
C102        C  0.38072594  0.10604958  0.38486627     1.03400
C103        C  0.57611287  0.91629100  0.39935704     1.02200
C104        C  0.50277048  0.81248448  0.24949489     1.02300
C105        C  0.29223583  0.99012187  0.26134133     1.04900
H106        H  0.49018529  0.90129137  0.33711063     0.32300
O107        O  0.48965247  0.93226825  0.31257115    -1.03000
H108        H  0.37576147  0.99620903  0.17570114     0.34300
O109        O  0.40724768  0.99865695  0.19803340    -1.05500
C110        C  0.29320321  0.85309686  0.00777979    -0.00500
C111        C  0.67536955  0.86176007  0.00891611    -0.00500
C112        C  0.65509754  0.82457295  0.50008346    -0.00500
C113        C  0.29869351  0.15873041  0.00230987    -0.00500
C114        C  0.68351992  0.17097332  0.98835578    -0.00500
C115        C  0.33285838  0.20248859  0.49747421    -0.00500
C116        C  0.33045406  0.81094604  0.51159757    -0.00500
O117        O  0.82549661  0.75595126  0.56961743    -0.78100
O118        O  0.01851130  0.74335389  0.32148107    -0.79700
O119        O  0.87347266  0.84353453  0.40407753    -0.76700
O120        O  0.87370292  0.65760903  0.41046016    -0.75100
O121        O  0.92946794  0.59695704  0.45167464    -0.76900
O122        O  0.91802216  0.90682834  0.45507656    -0.77800
O123        O  0.92706533  0.74201876  0.33400413    -0.79100
O124        O  0.81747941  0.76321396  0.47637809    -0.79400
Eu125      Eu  0.90632153  0.75143286  0.43226060     2.39200
O126        O  0.98618049  0.70264588  0.42398404    -0.86900
O127        O  0.91722609  0.80047424  0.51239179    -0.90500
C128        C  0.79810977  0.76474466  0.52588146     1.04200
C129        C  0.97001935  0.73745180  0.30405965     1.04000
C130        C  0.88277452  0.89290427  0.42008857     1.03900
C131        C  0.88861758  0.60883232  0.42289653     1.01800
H132        H  0.97630533  0.83477098  0.39073963     0.31500
O133        O  0.98108492  0.81169575  0.42255664    -0.99300
H134        H  0.88614629  0.67041588  0.51472187     0.31600
O135        O  0.91687681  0.69473433  0.51072353    -1.01800
O136        O  0.15692932  0.76989582  0.43158526    -0.79100
O137        O  0.96708179  0.73726639  0.68102488    -0.78600
O138        O  0.03489459  0.91431752  0.43001842    -0.77000
O139        O  0.05201123  0.60844807  0.42552383    -0.80400
O140        O  0.94680385  0.59434374  0.57310324    -0.78200
O141        O  0.91926313  0.89878691  0.56581598    -0.76900
O142        O  0.11052267  0.84590725  0.59954371    -0.78400
O143        O  0.12127934  0.67503728  0.59083216    -0.80300
O144        O  0.05997507  0.90927976  0.55618752    -0.77100
O145        O  0.07301781  0.60624800  0.55176027    -0.79800
O146        O  0.08042276  0.85551831  0.37485304    -0.75500
O147        O  0.88345941  0.83199560  0.62269777    -0.75500
O148        O  0.89281106  0.65267258  0.62005468    -0.75200
O149        O  0.09503083  0.67674489  0.37594402    -0.78700
O150        O  0.16363914  0.76936245  0.52503022    -0.78100
O151        O  0.05805588  0.74634722  0.66663399    -0.76400
Eu152      Eu  0.06045098  0.76220694  0.41107487     2.39800
Eu153      Eu  0.92210776  0.74608725  0.59130120     2.39600
Eu154      Eu  0.98854262  0.86278274  0.50406629     2.38400
Eu155      Eu  0.99779619  0.64606445  0.50120959     2.39900
Eu156      Eu  0.07562364  0.75871646  0.56897779     2.39800
O157        O  0.00237760  0.69789905  0.58047304    -0.90800
O158        O  0.06704625  0.81440910  0.49106742    -0.89700
C159        C  0.18393619  0.77248428  0.47614794     1.04300
C160        C  0.01625930  0.73801060  0.69755284     1.03100
C161        C  0.06551442  0.90360822  0.38850339     1.02500
C162        C  0.08422765  0.62638288  0.38693323     1.04500
C163        C  0.90945404  0.60454629  0.60880372     1.03400
C164        C  0.88628886  0.88119287  0.60371462     1.02200
C165        C  0.09899382  0.89505703  0.58714976     1.02300
C166        C  0.11272138  0.62490314  0.57966613     1.04900
H167        H  0.99900055  0.83031880  0.61601186     0.32300
O168        O  0.99653552  0.80827203  0.58367663    -1.03000
H169        H  0.10375174  0.68644863  0.48480709     0.34300
O170        O  0.07110413  0.70648867  0.48945520    -1.05500
O171        O  0.81737389  0.25910320  0.54364722    -0.78100
O172        O  0.04524035  0.25275600  0.32964537    -0.79700
O173        O  0.88512331  0.34037782  0.38167237    -0.76700
O174        O  0.89058609  0.15674279  0.38704031    -0.75100
O175        O  0.93556705  0.09826890  0.44299574    -0.76900
O176        O  0.94065768  0.40758209  0.41397125    -0.77800
O177        O  0.95321236  0.25434488  0.32470534    -0.79100
O178        O  0.81909189  0.24569661  0.45097677    -0.79400
Eu179      Eu  0.91502224  0.25012119  0.41797094     2.39200
O180        O  0.99219539  0.19658770  0.42980360    -0.86900
O181        O  0.91571226  0.31246404  0.48910694    -0.90500
C182        C  0.79451269  0.25028360  0.49807299     1.04200
C183        C  0.00098484  0.25676760  0.30311554     1.04000
C184        C  0.90165706  0.39060948  0.38451316     1.03900
C185        C  0.90479362  0.10848458  0.40201150     1.01800
H186        H  0.99908935  0.32545737  0.38214601     0.31500
O187        O  0.99576693  0.30392248  0.41541523    -0.99300
H188        H  0.87889373  0.17824737  0.50414524     0.31600
O189        O  0.91035067  0.20170256  0.50240047    -1.01800
O190        O  0.16245232  0.23913995  0.46821505    -0.79100
O191        O  0.92461926  0.27821309  0.66913515    -0.78600
O192        O  0.06954964  0.40355795  0.42619543    -0.77000
O193        O  0.05330462  0.09921289  0.45845426    -0.80400
O194        O  0.92071399  0.10936121  0.58159091    -0.78200
O195        O  0.92435310  0.41850672  0.53048152    -0.76900
O196        O  0.09696059  0.35929326  0.60250534    -0.78400
O197        O  0.08973697  0.18835749  0.62993965    -0.80300
O198        O  0.05718063  0.41726365  0.54231380    -0.77100
O199        O  0.05097647  0.11701431  0.58493786    -0.79800
O200        O  0.11876790  0.33301605  0.39422051    -0.75500
O201        O  0.87325611  0.35742865  0.58158466    -0.75500
O202        O  0.87611081  0.18060900  0.61901333    -0.75200
O203        O  0.09793858  0.15909261  0.40019418    -0.78700
O204        O  0.15431732  0.25504366  0.56035129    -0.78100
O205        O  0.01600804  0.28119291  0.67629251    -0.76400
Eu206      Eu  0.07209614  0.24986352  0.42686983     2.39800
Eu207      Eu  0.90836100  0.26562012  0.57310347     2.39600
Eu208      Eu  0.99466144  0.36705625  0.48536886     2.38400
Eu209      Eu  0.98681525  0.14823660  0.51389321     2.39900
Eu210      Eu  0.05919858  0.26897591  0.58419515     2.39800
O211        O  0.98297408  0.21121345  0.58573292    -0.90800
O212        O  0.06945602  0.31289718  0.49825151    -0.89700
C213        C  0.18184679  0.24271500  0.51705843     1.04300
C214        C  0.96758369  0.28301023  0.69675358     1.03100
C215        C  0.11014849  0.38402948  0.39954681     1.02500
C216        C  0.08682586  0.11097470  0.41880180     1.04500
C217        C  0.88603705  0.12950816  0.61556737     1.03400
C218        C  0.88448939  0.40557660  0.56271759     1.02200
C219        C  0.09048079  0.40641197  0.58040394     1.02300
C220        C  0.08314010  0.13758136  0.62092159     1.04900
H221        H  0.98218192  0.35091833  0.60065698     0.32300
O222        O  0.98467352  0.32415543  0.57219756    -1.03000
H223        H  0.09283967  0.18232661  0.51666136     0.34300
O224        O  0.06252072  0.20560293  0.51226089    -1.05500
C225        C  0.79851004  0.49710221  0.65400378    -0.00500
C226        C  0.18017729  0.50791793  0.65831451    -0.00500
C227        C  0.82708826  0.99772259  0.31546461    -0.00500
C228        C  0.83424080  0.99580316  0.69371977    -0.00500
C229        C  0.80020156  0.50294921  0.34736816    -0.00500
C230        C  0.18589073  0.51847182  0.35133761    -0.00500
C231        C  0.14577593  0.01704177  0.30666396    -0.00500
C232        C  0.14288836  0.00706793  0.68456110    -0.00500
O233        O  0.71727748  0.68386248  0.93966617    -0.78100
O234        O  0.75769793  0.48250698  0.17634372    -0.79700
O235        O  0.63498559  0.61689906  0.11088529    -0.76700
O236        O  0.80261792  0.64925876  0.10118972    -0.75100
O237        O  0.87369860  0.60141625  0.06692437    -0.76900
O238        O  0.57924365  0.55774831  0.06656391    -0.77800
O239        O  0.74119510  0.57352842  0.17100336    -0.79100
O240        O  0.70741213  0.68938902  0.03267188    -0.79400
Eu241      Eu  0.72463995  0.59836392  0.07454644     2.39200
O242        O  0.78795961  0.52805908  0.07944683    -0.86900
O243        O  0.67243160  0.58637797  0.99696452    -0.90500
C244        C  0.70808737  0.71031936  0.98357445     1.04200
C245        C  0.75416847  0.53013975  0.19751034     1.04000
C246        C  0.58868171  0.59544671  0.10136332     1.03900
C247        C  0.85278835  0.64012777  0.09540451     1.01800
H248        H  0.66099601  0.51111853  0.11535303     0.31500
O249        O  0.68265201  0.51226397  0.08210229    -0.99300
H250        H  0.80141645  0.63560719  0.99551824     0.31600
O251        O  0.78313323  0.60072385  0.99784970    -1.01800
O252        O  0.73795164  0.34638700  0.05899101    -0.79100
O253        O  0.73972984  0.55967234  0.82728537    -0.78600
O254        O  0.59384185  0.43717736  0.07701827    -0.77000
O255        O  0.89569986  0.47255479  0.06725621    -0.80400
O256        O  0.88494444  0.59642479  0.93849632    -0.78200
O257        O  0.58350083  0.55275176  0.93239774    -0.76900
O258        O  0.66186348  0.39212811  0.89563210    -0.78400
O259        O  0.83903040  0.40967592  0.89681063    -0.80300
O260        O  0.59448616  0.42513753  0.95056057    -0.77100
O261        O  0.89479655  0.47205412  0.93689802    -0.79800
O262        O  0.66336942  0.40645782  0.12822228    -0.75500
O263        O  0.64296199  0.60879363  0.88471321    -0.75500
O264        O  0.81705973  0.63309024  0.88923851    -0.75200
O265        O  0.83621461  0.41450209  0.11181200    -0.78700
O266        O  0.73678243  0.34138131  0.96528266    -0.78100
O267        O  0.75252541  0.46793246  0.82857549    -0.76400
Eu268      Eu  0.74614078  0.44232048  0.08512096     2.39800
Eu269      Eu  0.73129167  0.58928575  0.92025373     2.39600
Eu270      Eu  0.62999316  0.50044191  0.00403075     2.38400
Eu271      Eu  0.84509896  0.52933536  0.00252791     2.39900
Eu272      Eu  0.74708744  0.43436808  0.92580907     2.39800
O273        O  0.79299140  0.51887906  0.92391095    -0.90800
O274        O  0.69423701  0.43298176  0.00668500    -0.89700
C275        C  0.73312035  0.31993111  0.01399047     1.04300
C276        C  0.74886778  0.51463229  0.80378967     1.03100
C277        C  0.61312069  0.40960009  0.11758417     1.02500
C278        C  0.88418221  0.43257386  0.10063175     1.04500
C279        C  0.86696893  0.62930151  0.90191811     1.03400
C280        C  0.59569314  0.58877337  0.89484286     1.02200
C281        C  0.61251971  0.39363097  0.91303078     1.02300
C282        C  0.88586295  0.43135400  0.90514879     1.04900
H283        H  0.66344661  0.50072807  0.89147960     0.32300
O284        O  0.68492193  0.50481408  0.92371395    -1.03000
H285        H  0.82559717  0.41452177  0.00600416     0.34300
O286        O  0.80042161  0.44381798  0.00484478    -1.05500
O287        O  0.25475704  0.67301460  0.93529384    -0.78100
O288        O  0.22292745  0.47687473  0.17990432    -0.79700
O289        O  0.16648299  0.63662879  0.09821625    -0.76700
O290        O  0.33297382  0.61038271  0.10696017    -0.75100
O291        O  0.39228708  0.55192710  0.06744470    -0.76900
O292        O  0.09633496  0.58804375  0.06357429    -0.77800
O293        O  0.23757878  0.56824500  0.16594705    -0.79100
O294        O  0.26035561  0.68033783  0.02837107    -0.79400
Eu295      Eu  0.24663431  0.58960814  0.06832455     2.39200
O296        O  0.29118173  0.50744114  0.07360821    -0.86900
O297        O  0.19162305  0.58958443  0.99163696    -0.90500
C298        C  0.26048871  0.70079346  0.97952180     1.04200
C299        C  0.22723843  0.52642248  0.19674047     1.04000
C300        C  0.11606083  0.62749618  0.09213465     1.03900
C301        C  0.37902962  0.58832425  0.10253638     1.01800
H302        H  0.16146763  0.52081916  0.11285826     0.31500
O303        O  0.18547040  0.51598300  0.08188020    -0.99300
H304        H  0.32802470  0.60906132  0.98632459     0.31600
O305        O  0.30234966  0.57928316  0.98974717    -1.01800
O306        O  0.24285073  0.33558657  0.06809568    -0.79100
O307        O  0.23667891  0.53107914  0.82341690    -0.78600
O308        O  0.08165698  0.45072647  0.06233943    -0.77000
O309        O  0.38622198  0.44590195  0.07306132    -0.80400
O310        O  0.39664369  0.54946971  0.92571968    -0.78200
O311        O  0.09363127  0.56755380  0.92930498    -0.76900
O312        O  0.13975952  0.38818246  0.91801103    -0.78400
O313        O  0.31728676  0.38476962  0.89128429    -0.80300
O314        O  0.08138628  0.44601007  0.96047414    -0.77100
O315        O  0.38672974  0.42833625  0.93333774    -0.79800
O316        O  0.13981256  0.39663122  0.10872898    -0.75500
O317        O  0.16079985  0.60796299  0.87667971    -0.75500
O318        O  0.33523440  0.59411949  0.87364808    -0.75200
O319        O  0.31895680  0.41378233  0.13150741    -0.78700
O320        O  0.24599082  0.32658830  0.97472320    -0.78100
O321        O  0.23033882  0.43855836  0.83470382    -0.76400
Eu322      Eu  0.23237953  0.43317759  0.08911876     2.39800
Eu323      Eu  0.24574173  0.57518921  0.91316940     2.39600
Eu324      Eu  0.13300477  0.51512156  0.00438477     2.38400
Eu325      Eu  0.34800585  0.49667247  0.99724304     2.39900
Eu326      Eu  0.23369992  0.41801361  0.93305743     2.39800
O327        O  0.29217340  0.49326993  0.92158155    -0.90800
O328        O  0.17978791  0.43277230  0.01110099    -0.89700
C329        C  0.24926918  0.30734238  0.02416505     1.04300
C330        C  0.23079408  0.48229353  0.80516167     1.03100
C331        C  0.09235749  0.40932281  0.09263002     1.02500
C332        C  0.36869972  0.42302619  0.11793066     1.04500
C333        C  0.38329580  0.58002019  0.88510782     1.03400
C334        C  0.11095569  0.59801947  0.88905644     1.02200
C335        C  0.09231046  0.40406609  0.93239929     1.02300
C336        C  0.36777119  0.39459870  0.89775861     1.04900
H337        H  0.16296314  0.49756347  0.89488656     0.32300
O338        O  0.18646005  0.50027206  0.92574799    -1.03000
H339        H  0.31175599  0.39164437  0.01341585     0.34300
O340        O  0.28886831  0.42259984  0.01013928    -1.05500
C341        C  0.00228607  0.69836280  0.85210457    -0.00500
C342        C  0.98961646  0.32677833  0.84692944    -0.00500
C343        C  0.49226275  0.67095378  0.81229940    -0.00500
C344        C  0.48090653  0.66889122  0.18882788    -0.00500
C345        C  0.97730408  0.31908781  0.15942120    -0.00500
C346        C  0.98499386  0.69179126  0.15164401    -0.00500
C347        C  0.49992489  0.35475155  0.81652905    -0.00500
C348        C  0.48225625  0.35377077  0.19212206    -0.00500
O349        O  0.59428433  0.39371001  0.42109962    -0.78100
O350        O  0.43922955  0.48533703  0.67598259    -0.79700
O351        O  0.61654977  0.43340245  0.60149078    -0.76700
O352        O  0.47149084  0.33849273  0.54927430    -0.75100
O353        O  0.40066635  0.35929568  0.49522609    -0.76900
O354        O  0.64433785  0.52164564  0.58868559    -0.77800
O355        O  0.49575187  0.41649261  0.65439480    -0.79100
O356        O  0.58255062  0.36447147  0.50983131    -0.79400
Eu357      Eu  0.52592073  0.42433861  0.55961112     2.39200
O358        O  0.43662538  0.45361500  0.55978614    -0.86900
O359        O  0.57988415  0.48255601  0.50413769    -0.90500
C360        C  0.60011371  0.35886112  0.46057391     1.04200
C361        C  0.46552674  0.44229256  0.68816884     1.04000
C362        C  0.65155528  0.47274862  0.60544763     1.03900
C363        C  0.42802436  0.32584266  0.52346902     1.01800
H364        H  0.53686277  0.51238237  0.63066566     0.31500
O365        O  0.52327528  0.51273800  0.59388940    -0.99300
H366        H  0.49535099  0.38753716  0.45457132     0.31600
O367        O  0.49462733  0.42354639  0.46949352    -1.01800
O368        O  0.38614344  0.63144398  0.58419029    -0.79100
O369        O  0.53960704  0.54060550  0.33147436    -0.78600
O370        O  0.56683720  0.61467736  0.63055454    -0.77000
O371        O  0.32448634  0.45355864  0.52897644    -0.80400
O372        O  0.41930065  0.41084296  0.37666021    -0.78200
O373        O  0.65989247  0.56650033  0.47787720    -0.76900
O374        O  0.51578021  0.68357859  0.45508784    -0.78400
O375        O  0.36762076  0.58574748  0.40225014    -0.80300
O376        O  0.58508388  0.66540347  0.51232794    -0.77100
O377        O  0.34119045  0.49707060  0.41510537    -0.79800
O378        O  0.47963262  0.59853249  0.65749165    -0.75500
O379        O  0.63979396  0.51211477  0.40566867    -0.75500
O380        O  0.50587748  0.42687157  0.34725144    -0.75200
O381        O  0.34206108  0.51008330  0.60027178    -0.78700
O382        O  0.40096375  0.65986995  0.49580593    -0.78100
O383        O  0.48242486  0.60916085  0.35221549    -0.76400
Eu384      Eu  0.43401420  0.54310637  0.59251485     2.39800
Eu385      Eu  0.54822623  0.48207181  0.41433581     2.39600
Eu386      Eu  0.57785581  0.57084447  0.53863989     2.38400
Eu387      Eu  0.40651812  0.45327944  0.46900080     2.39900
Eu388      Eu  0.45720559  0.59953210  0.44731298     2.39800
O389        O  0.45957730  0.51148876  0.41280785    -0.90800
O390        O  0.48883893  0.60080016  0.53730527    -0.89700
C391        C  0.38110830  0.66589942  0.54402711     1.04300
C392        C  0.51260317  0.58315651  0.31891106     1.03100
C393        C  0.52673964  0.61858188  0.66506321     1.02500
C394        C  0.31080421  0.47864302  0.57323167     1.04500
C395        C  0.45846668  0.40717760  0.34100133     1.03400
C396        C  0.67235207  0.54146446  0.43309159     1.02200
C397        C  0.55878734  0.69748232  0.48133031     1.02300
C398        C  0.33382266  0.54525854  0.39709811     1.04900
H399        H  0.56898620  0.59471721  0.42471933     0.32300
O400        O  0.54674947  0.57099526  0.44781432    -1.03000
H401        H  0.36635913  0.55444005  0.50337983     0.34300
O402        O  0.40282738  0.54190561  0.50291027    -1.05500
O403        O  0.11199174  0.90669722  0.07411005    -0.78100
O404        O  0.01157143  0.06107363  0.82867330    -0.79700
O405        O  0.06099286  0.88389636  0.89978269    -0.76700
O406        O  0.15597479  0.03146403  0.94345935    -0.75100
O407        O  0.13756791  0.10237824  0.99968524    -0.76900
O408        O  0.97317002  0.85677638  0.91114058    -0.77800
O409        O  0.08015535  0.00386357  0.84753668    -0.79100
O410        O  0.13878444  0.92078100  0.98486537    -0.79400
Eu411      Eu  0.07277237  0.97528383  0.94140432     2.39200
O412        O  0.04351162  0.06556722  0.94322443    -0.86900
O413        O  0.01770512  0.91983702  0.99742211    -0.90500
C414        C  0.14604121  0.90197934  0.03329214     1.04200
C415        C  0.05411502  0.03449092  0.81509774     1.04000
C416        C  0.02162242  0.84930369  0.89462296     1.03900
C417        C  0.16933437  0.07516540  0.96883892     1.01800
H418        H  0.98391538  0.96460088  0.87228171     0.31500
O419        O  0.98477210  0.97826565  0.90916041    -0.99300
H420        H  0.11262847  0.00716256  0.04452765     0.31600
O421        O  0.07631355  0.00739372  0.03143709    -1.01800
O422        O  0.86402250  0.11126685  0.92665577    -0.79100
O423        O  0.96273779  0.95361491  0.17118380    -0.78600
O424        O  0.88189146  0.93679814  0.87805466    -0.77000
O425        O  0.04185633  0.17920430  0.97393926    -0.80400
O426        O  0.09017245  0.08576034  0.12449283    -0.78200
O427        O  0.94068729  0.83593599  0.01749522    -0.76900
O428        O  0.81810408  0.99308205  0.04652781    -0.78400
O429        O  0.91454979  0.13712189  0.10127832    -0.80300
O430        O  0.83690758  0.91885421  0.99475312    -0.77100
O431        O  0.00136230  0.16600202  0.08559384    -0.79800
O432        O  0.89672392  0.02482785  0.85024111    -0.75500
O433        O  0.99824675  0.85410042  0.08700363    -0.75500
O434        O  0.07529035  0.99771031  0.15231029    -0.75200
O435        O  0.98321284  0.16202265  0.90497665    -0.78700
O436        O  0.83577542  0.09778889  0.01560626    -0.78100
O437        O  0.89552456  0.01332304  0.15433106    -0.76400
Eu438      Eu  0.95438690  0.06826223  0.91324562     2.39800
Eu439      Eu  0.02148585  0.95031032  0.08723512     2.39600
Eu440      Eu  0.92958969  0.92310122  0.96638370     2.38400
Eu441      Eu  0.04593368  0.09684862  0.03376626     2.39900
Eu442      Eu  0.90291618  0.04472101  0.06009050     2.39800
O443        O  0.99131674  0.04048314  0.09078990    -0.90800
O444        O  0.90046724  0.01256248  0.97035533    -0.89700
C445        C  0.82923157  0.11600196  0.96671614     1.04300
C446        C  0.92061051  0.98046767  0.18571217     1.03100
C447        C  0.87655551  0.97725383  0.84414878     1.02500
C448        C  0.01532062  0.19330137  0.93106546     1.04500
C449        C  0.09435756  0.04581241  0.15926555     1.03400
C450        C  0.96944359  0.82136890  0.05862590     1.02200
C451        C  0.80455384  0.94952810  0.02090046     1.02300
C452        C  0.95333833  0.17296208  0.10397155     1.04900
H453        H  0.90849975  0.93017410  0.08063693     0.32300
O454        O  0.93155672  0.95336457  0.05778421    -1.03000
H455        H  0.94417098  0.13652622  0.00217285     0.34300
O456        O  0.95745501  0.10002764  0.00270072    -1.05500
C457        C  0.44938118  0.37933562  0.28847380    -0.14400
C458        C  0.48686296  0.38233650  0.24714644    -0.29600
H459        H  0.41138825  0.35808584  0.28308746     0.14600
H460        H  0.52269722  0.40735857  0.25265859     0.15200
C461        C  0.46237004  0.42095634  0.74505482    -0.14400
C462        C  0.49627097  0.38185107  0.76052676    -0.29600
H463        H  0.43387398  0.43814513  0.77381973     0.14600
H464        H  0.52563432  0.36745337  0.73072802     0.15200
C465        C  0.98544328  0.74916152  0.12638611    -0.14400
C466        C  0.97036588  0.76318402  0.07521477    -0.29600
H467        H  0.99744318  0.78180418  0.15335227     0.14600
H468        H  0.95678382  0.73245620  0.04689523     0.15200
C469        C  0.98004752  0.26741388  0.12560642    -0.14400
C470        C  0.94298079  0.22623561  0.12935008    -0.29600
H471        H  0.01620153  0.26177252  0.10078613     0.14600
H472        H  0.90626662  0.23103842  0.15339402     0.15200
C473        C  0.51687402  0.60509662  0.26276149    -0.14400
C474        C  0.47768829  0.63652546  0.24256980    -0.29600
H475        H  0.55350590  0.59735972  0.23983307     0.14600
H476        H  0.44130379  0.64182408  0.26720107     0.15200
C477        C  0.49225787  0.64564834  0.75559839    -0.14400
C478        C  0.53365005  0.64625837  0.71834385    -0.29600
H479        H  0.45474513  0.62581563  0.74467283     0.14600
H480        H  0.57217314  0.66476130  0.72778500     0.15200
C481        C  0.98591844  0.27084025  0.87507970    -0.14400
C482        C  0.02220165  0.24910934  0.90947838    -0.29600
H483        H  0.95077432  0.24629238  0.86519792     0.14600
H484        H  0.05812967  0.27096013  0.92127564     0.15200
C485        C  0.99676487  0.75425878  0.87727548    -0.14400
C486        C  0.03198162  0.79640893  0.86929624    -0.29600
H487        H  0.96218098  0.76005842  0.90436682     0.14600
H488        H  0.06922418  0.79153610  0.84639889     0.15200
C489        C  0.04586548  0.37232355  0.91656756    -0.14400
C490        C  0.03936534  0.35821743  0.86461719    -0.29600
H491        H  0.01421201  0.36400614  0.94704078     0.14600
H492        H  0.07072093  0.37004780  0.83485301     0.15200
C493        C  0.03051073  0.35178670  0.15230521    -0.14400
C494        C  0.04654080  0.37152488  0.10293496    -0.29600
H495        H  0.05461480  0.36105611  0.18776891     0.14600
H496        H  0.02079639  0.36420778  0.06823375     0.15200
C497        C  0.07925898  0.66528367  0.12054882    -0.14400
C498        C  0.02605159  0.65644210  0.12222838    -0.29600
H499        H  0.09616808  0.70005472  0.14150219     0.14600
H500        H  0.01116200  0.62076417  0.10099336     0.15200
C501        C  0.05723586  0.67569577  0.86550034    -0.14400
C502        C  0.06982685  0.62388600  0.85601094    -0.29600
H503        H  0.08435499  0.69981024  0.89023200     0.14600
H504        H  0.04176658  0.59776882  0.83466662     0.15200
C505        C  0.40547912  0.36634177  0.85952923    -0.14400
C506        C  0.45887134  0.37589980  0.85907588    -0.29600
H507        H  0.38858809  0.33980908  0.82891492     0.14600
H508        H  0.47410829  0.40285474  0.89033006     0.15200
C509        C  0.44318657  0.65059002  0.84614626    -0.14400
C510        C  0.42630244  0.59853559  0.84778370    -0.29600
H511        H  0.42285684  0.67861889  0.87330392     0.14600
H512        H  0.44462253  0.56816142  0.82218876     0.15200
C513        C  0.41833381  0.60254391  0.14354806    -0.14400
C514        C  0.43334823  0.65406112  0.15295706    -0.29600
H515        H  0.43495676  0.56912617  0.16647882     0.14600
H516        H  0.41416135  0.68592650  0.12957142     0.15200
C517        C  0.40977550  0.41156859  0.15790325    -0.14400
C518        C  0.42661174  0.36129666  0.16863122    -0.29600
H519        H  0.43481031  0.44601931  0.16947692     0.14600
H520        H  0.40334758  0.32643266  0.15492021     0.15200
C521        C  0.57585984  0.38058256  0.15654900    -0.14400
C522        C  0.52246931  0.37906981  0.15006838    -0.29600
H523        H  0.59257459  0.36146475  0.19261345     0.14600
H524        H  0.50709457  0.39750112  0.11293277     0.15200
C525        C  0.54288030  0.60996453  0.13554693    -0.14400
C526        C  0.53266416  0.65945941  0.15553227    -0.29600
H527        H  0.51663557  0.57593607  0.14539050     0.13800
H528        H  0.56020003  0.69316733  0.14595325     0.15200
C529        C  0.54250214  0.65659186  0.84406467    -0.14400
C530        C  0.55255306  0.60483376  0.85859128    -0.29600
H531        H  0.56878504  0.68894897  0.85831339     0.14600
H532        H  0.52708393  0.57194715  0.84527006     0.15200
C533        C  0.57205131  0.35861192  0.88751373    -0.14400
C534        C  0.55582912  0.37060167  0.83668999    -0.29600
H535        H  0.54616358  0.33367141  0.91440589     0.14600
H536        H  0.58089584  0.39872184  0.81203563     0.15200
C537        C  0.92983710  0.40536752  0.12656227    -0.14400
C538        C  0.92839376  0.35215061  0.14174656    -0.29600
H539        H  0.96641372  0.42953509  0.12931073     0.14600
H540        H  0.89023394  0.33020710  0.13961896     0.15200
C541        C  0.93690559  0.35674060  0.86008840    -0.14400
C542        C  0.93423863  0.40822696  0.87847368    -0.29600
H543        H  0.89963806  0.33321150  0.85803272     0.14600
H544        H  0.97026289  0.43356471  0.87912920     0.15200
C545        C  0.90616649  0.66617442  0.87325229    -0.14400
C546        C  0.95952505  0.66052176  0.87890190    -0.29600
H547        H  0.89120356  0.69862793  0.84754508     0.14600
H548        H  0.97303642  0.62729010  0.90460458     0.15200
C549        C  0.93241374  0.66026103  0.14635805    -0.14400
C550        C  0.88902716  0.67846989  0.12151601    -0.29600
H551        H  0.93310233  0.61721218  0.15714371     0.14600
H552        H  0.88199981  0.72141099  0.11593498     0.15200
C553        C  0.11907733  0.01011724  0.74255571    -0.14400
C554        C  0.07453399  0.03754675  0.75809323    -0.29600
H555        H  0.13880571  0.98529550  0.77296398     0.14600
H556        H  0.05129642  0.06038865  0.72905284     0.15200
C557        C  0.11748342  0.01560448  0.25198567    -0.14400
C558        C  0.12194777  0.05425211  0.21188114    -0.29600
H559        H  0.09286714  0.97963773  0.24462448     0.14600
H560        H  0.14561396  0.09106975  0.21786212     0.15200
C561        C  0.21976610  0.53827059  0.25527087    -0.14400
C562        C  0.18938041  0.50747407  0.28992454    -0.29600
H563        H  0.23785049  0.57563859  0.26953456     0.14600
H564        H  0.16809472  0.47247611  0.27371569     0.15200
C565        C  0.28155461  0.55328120  0.37062246    -0.14400
C566        C  0.24178185  0.51450318  0.37550703    -0.29600
H567        H  0.27485367  0.59166399  0.34994977     0.14600
H568        H  0.24911465  0.47810364  0.39964284     0.15200
C569        C  0.79077310  0.49776342  0.28599543    -0.14400
C570        C  0.76595369  0.53621326  0.25642711    -0.29600
H571        H  0.80313044  0.46088760  0.26574971     0.14600
H572        H  0.75454457  0.57365880  0.27612124     0.15200
C573        C  0.74520051  0.50652320  0.37553408    -0.14400
C574        C  0.72785702  0.54500602  0.41070687    -0.29600
H575        H  0.71796546  0.47298760  0.36621403     0.14600
H576        H  0.75350802  0.57823176  0.42349602     0.15200
C577        C  0.85617222  0.00508530  0.75029007    -0.14400
C578        C  0.84766610  0.96955585  0.79281010    -0.29600
H579        H  0.88245097  0.04032748  0.75528694     0.14600
H580        H  0.82313150  0.93310396  0.78781126     0.15200
C581        C  0.85810970  0.00450957  0.26097534    -0.14400
C582        C  0.89824757  0.97282215  0.24204075    -0.29600
H583        H  0.84601370  0.03839141  0.23541673     0.14600
H584        H  0.91444788  0.94068869  0.26716223     0.15200
C585        C  0.22125942  0.47578401  0.74627637    -0.14400
C586        C  0.19151693  0.51175786  0.71903523    -0.29600
H587        H  0.23534457  0.43966189  0.72590394     0.14600
H588        H  0.17585371  0.54611003  0.74146669     0.15200
C589        C  0.23463286  0.51027894  0.62835325    -0.14400
C590        C  0.25528648  0.47209375  0.59505370    -0.29600
H591        H  0.25897840  0.54629152  0.63652433     0.14600
H592        H  0.23220767  0.43627989  0.58405254     0.15200
C593        C  0.78842960  0.48749923  0.71512405    -0.14400
C594        C  0.75638135  0.51966173  0.74413289    -0.29600
H595        H  0.80721517  0.45382442  0.73607983     0.14600
H596        H  0.73893940  0.55450717  0.72387085     0.15200
C597        C  0.74478873  0.50006755  0.62515797    -0.14400
C598        C  0.70448276  0.46234172  0.63015236    -0.29600
H599        H  0.73802073  0.53637591  0.60068856     0.14600
H600        H  0.71031600  0.42496063  0.65313612     0.15200
C601        C  0.00584409  0.26951651  0.24421411    -0.14400
C602        C  0.97035546  0.30192043  0.21921896    -0.29600
H603        H  0.04166624  0.25692576  0.22204485     0.14600
H604        H  0.93574794  0.31623878  0.24233656     0.15200
C605        C  0.95940839  0.29136680  0.75593184    -0.14400
C606        C  0.99572749  0.31811654  0.78548292    -0.29600
H607        H  0.92170826  0.27752122  0.77501112     0.14600
H608        H  0.03164829  0.33349673  0.76391699     0.15200
C609        C  0.87428386  0.43329835  0.35294461    -0.14400
C610        C  0.82573735  0.45080535  0.36921103    -0.29600
H611        H  0.89773476  0.45704913  0.32289265     0.14600
H612        H  0.80475266  0.42798417  0.40192782     0.15200
C613        C  0.84964460  0.44946198  0.58005329    -0.14400
C614        C  0.82909445  0.44955454  0.63123710    -0.29600
H615        H  0.84517996  0.48441175  0.55300104     0.14600
H616        H  0.83702772  0.41521727  0.65816005     0.15200
C617        C  0.14738283  0.45687511  0.64592840    -0.14400
C618        C  0.12518006  0.45166613  0.59641890    -0.29600
H619        H  0.13931116  0.42629369  0.67770552     0.14600
H620        H  0.13175827  0.48345979  0.56563222     0.15200
C621        C  0.15031028  0.42218679  0.37336285    -0.14400
C622        C  0.14805187  0.47625589  0.37999564    -0.29600
H623        H  0.18214591  0.40561086  0.34794390     0.14600
H624        H  0.11623284  0.49103606  0.40671437     0.15200
C625        C  0.11590646  0.04779600  0.64654072    -0.14400
C626        C  0.11614222  0.10131263  0.65433945    -0.29600
H627        H  0.09134885  0.03247177  0.61363831     0.14600
H628        H  0.13955568  0.11846506  0.68722894     0.15200
C629        C  0.85903975  0.03776474  0.65213203    -0.14400
C630        C  0.85612030  0.09229250  0.65479035    -0.29600
H631        H  0.88352100  0.02226476  0.61869856     0.14600
H632        H  0.83340192  0.11069524  0.68759210     0.15200
C633        C  0.88922689  0.06083430  0.36797592    -0.14400
C634        C  0.83917920  0.04891301  0.34994123    -0.29600
H635        H  0.92063825  0.03184591  0.35997134     0.14600
H636        H  0.80675938  0.07608344  0.36017512     0.15200
C637        C  0.11308115  0.06521408  0.39234864    -0.14400
C638        C  0.12749899  0.06652252  0.33870841    -0.29600
H639        H  0.11614516  0.02841919  0.41680373     0.14600
H640        H  0.12530295  0.10480470  0.31628365     0.15200
C641        C  0.96157769  0.72547502  0.24548059    -0.14400
C642        C  0.99595516  0.69777226  0.21294236    -0.29600
H643        H  0.92419661  0.73921314  0.22825599     0.14600
H644        H  0.03234622  0.68153933  0.23002819     0.15200
C645        C  0.02717967  0.72930431  0.75606472    -0.14400
C646        C  0.99326385  0.70230271  0.79052467    -0.29600
H647        H  0.06574118  0.74353110  0.77054604     0.14600
H648        H  0.95712817  0.68403454  0.77387360     0.15200
C649        C  0.16289250  0.57414394  0.36342589    -0.14400
C650        C  0.11127688  0.58535091  0.35407523    -0.29600
H651        H  0.18593335  0.60244238  0.38795465     0.14600
H652        H  0.08626252  0.55593699  0.33314810     0.15200
C653        C  0.15307616  0.58663114  0.59762711    -0.14400
C654        C  0.14547457  0.55622354  0.64328553    -0.29600
H655        H  0.18749352  0.58114717  0.57048119     0.14600
H656        H  0.10883849  0.56178638  0.66749009     0.15200
C657        C  0.88352875  0.55645626  0.63662662    -0.14400
C658        C  0.82967596  0.55167958  0.64453232    -0.29600
H659        H  0.90822402  0.52108877  0.64219249     0.14600
H660        H  0.80621911  0.58760646  0.63666254     0.15200
C661        C  0.85506858  0.56177152  0.40836103    -0.14400
C662        C  0.83596371  0.55276021  0.35826830    -0.29600
H663        H  0.84749698  0.53148997  0.44053466     0.14600
H664        H  0.84649452  0.58116749  0.32512396     0.15200
C665        C  0.08112974  0.95047454  0.35311490    -0.14400
C666        C  0.13224201  0.96354380  0.33801740    -0.29600
H667        H  0.04974748  0.97911580  0.34411160     0.14600
H668        H  0.16421650  0.93662192  0.34978074     0.15200
C669        C  0.85352832  0.93928019  0.39735415    -0.14400
C670        C  0.84162615  0.94404668  0.34421148    -0.29600
H671        H  0.85015948  0.97419441  0.42366117     0.14600
H672        H  0.84300535  0.90772451  0.31947892     0.15200
C673        C  0.84872584  0.92133453  0.62530379    -0.14400
C674        C  0.85377571  0.93980233  0.67625349    -0.29600
H675        H  0.82616152  0.94468024  0.59587292     0.14600
H676        H  0.87986451  0.91728681  0.70327651     0.15200
C677        C  0.13276780  0.93854539  0.60963097    -0.14400
C678        C  0.12961833  0.95033496  0.66330350    -0.29600
H679        H  0.15085520  0.96781529  0.58076840     0.14600
H680        H  0.10836594  0.92153177  0.69060213     0.15200
C681        C  0.27003333  0.80257997  0.51287888    -0.14400
C682        C  0.24255718  0.77996456  0.47160069    -0.29600
H683        H  0.24771399  0.81607271  0.54876791     0.14600
H684        H  0.26305315  0.76807297  0.43410006     0.15200
C685        C  0.35686774  0.75614886  0.51150644    -0.14400
C686        C  0.35211182  0.71736149  0.55153513    -0.29600
H687        H  0.38251408  0.74863862  0.47593821     0.14600
H688        H  0.32838041  0.72407714  0.58854168     0.15200
C689        C  0.27212225  0.20784086  0.48892863    -0.14400
C690        C  0.23949082  0.23161457  0.52594039    -0.29600
H691        H  0.25525145  0.19519886  0.45027201     0.14600
H692        H  0.25598105  0.24375107  0.56490285     0.15200
C693        C  0.35637698  0.25856865  0.50845771    -0.14400
C694        C  0.40762105  0.26905200  0.52347478    -0.29600
H695        H  0.33003613  0.29269618  0.50218622     0.14600
H696        H  0.43471210  0.23624320  0.53235337     0.15200
C697        C  0.72140980  0.26088001  0.01979883    -0.14400
C698        C  0.69547879  0.23186408  0.98150885    -0.29600
H699        H  0.73170244  0.24105238  0.05811864     0.14600
H700        H  0.68351026  0.25225073  0.94402379     0.15200
C701        C  0.73693663  0.14211545  0.99495816    -0.14400
C702        C  0.77765097  0.14373495  0.95686315    -0.29600
H703        H  0.74233168  0.11955306  0.03298115     0.14600
H704        H  0.77258417  0.16524966  0.91823815     0.15200
C705        C  0.26184163  0.24908584  0.03190428    -0.14400
C706        C  0.29323153  0.22057766  0.99683253    -0.29600
H707        H  0.24542306  0.22904356  0.06863014     0.14600
H708        H  0.31245910  0.24170682  0.96210988     0.15200
C709        C  0.24252047  0.13407220  0.99895394    -0.14400
C710        C  0.22532989  0.09542668  0.96427074    -0.29600
H711        H  0.21430753  0.14853209  0.02972886     0.14600
H712        H  0.25210498  0.07717493  0.93453557     0.15200
C713        C  0.71399719  0.80753532  0.49440213    -0.14400
C714        C  0.74067126  0.77969449  0.53336995    -0.29600
H715        H  0.73577122  0.81807845  0.45657295     0.14600
H716        H  0.72088964  0.77055358  0.57257238     0.15200
C717        C  0.62078615  0.77222242  0.50783647    -0.14400
C718        C  0.58162942  0.75344247  0.47439498    -0.29600
H719        H  0.63114229  0.74706549  0.54283333     0.14600
H720        H  0.56827088  0.77742603  0.43991700     0.15200
C721        C  0.69993885  0.76902374  0.97543745    -0.14400
C722        C  0.67466816  0.79973000  0.01235560    -0.29600
H723        H  0.71695187  0.78797902  0.93838428     0.14600
H724        H  0.65660650  0.77947601  0.04831852     0.15200
C725        C  0.73323023  0.88182070  0.00855393    -0.14400
C726        C  0.74769031  0.93359070  0.01935040    -0.29600
H727        H  0.76461016  0.85219460  0.00309595     0.14600
H728        H  0.71761672  0.96392506  0.02761868     0.15200
C729        C  0.26738074  0.76034915  0.97373664    -0.14400
C730        C  0.28650435  0.79171325  0.01436413    -0.29600
H731        H  0.25744401  0.77904286  0.93474725     0.14600
H732        H  0.29783877  0.77278077  0.05282031     0.15200
C733        C  0.23752643  0.87711417  0.00149152    -0.14400
C734        C  0.19821156  0.87481412  0.04130589    -0.29600
H735        H  0.22998842  0.89821312  0.96310084     0.14600
H736        H  0.20555276  0.85480892  0.08029722     0.15200
C737        C  0.23367482  0.98521634  0.26857191    -0.14400
C738        C  0.20579865  0.02267959  0.29595248    -0.29600
H739        H  0.21351320  0.94839505  0.25510159     0.14600
H740        H  0.22706320  0.05811453  0.31140633     0.15200
C741        C  0.76708780  0.99279555  0.30257878    -0.14400
C742        C  0.73954891  0.03087457  0.27504818    -0.29600
H743        H  0.74539108  0.95597977  0.31573613     0.14600
H744        H  0.75953439  0.06895750  0.26335872     0.15200
C745        C  0.34677466  0.84048224  0.45725397    -0.14400
C746        C  0.36630879  0.89150697  0.45326370    -0.29600
H747        H  0.34450427  0.81737751  0.41969964     0.14600
H748        H  0.36794731  0.91614762  0.48969038     0.15200
C749        C  0.63967725  0.85582049  0.44803435    -0.14400
C750        C  0.59397978  0.88395356  0.44653163    -0.29600
H751        H  0.66662040  0.85739561  0.41242684     0.14600
H752        H  0.56789930  0.88395895  0.48278548     0.15200
C753        C  0.35846584  0.18169112  0.44452679    -0.14400
C754        C  0.34676912  0.13180012  0.42616636    -0.29600
H755        H  0.38980406  0.20582467  0.42345491     0.14600
H756        H  0.31699155  0.10639938  0.44790119     0.15200
C757        C  0.49451791  0.29396015  0.19957292    -0.14400
C758        C  0.46381569  0.26107486  0.23170886    -0.29600
H759        H  0.52874942  0.27706736  0.17783743     0.14600
H760        H  0.42734070  0.27620100  0.25035255     0.15200
C761        C  0.50900690  0.75429142  0.23790098    -0.14400
C762        C  0.47584888  0.72852672  0.20360063    -0.29600
H763        H  0.54366464  0.73349521  0.25364611     0.14600
H764        H  0.44285509  0.75140169  0.18692814     0.15200
C765        C  0.62505803  0.11006566  0.05082269    -0.14400
C766        C  0.64727164  0.15966572  0.03991287    -0.29600
H767        H  0.63177485  0.07830548  0.02115546     0.14600
H768        H  0.63809417  0.19261889  0.06747880     0.15200
C769        C  0.64934043  0.88114178  0.06163260    -0.14400
C770        C  0.59799420  0.87115857  0.07446312    -0.29600
H771        H  0.67269575  0.90520568  0.09009780     0.14600
H772        H  0.57237120  0.84961165  0.04616023     0.15200
C773        C  0.31861249  0.87805191  0.05853522    -0.14400
C774        C  0.36775346  0.86581408  0.07596026    -0.29600
H775        H  0.29716956  0.90963449  0.08013691     0.14600
H776        H  0.39151916  0.83630701  0.05410872     0.15200
C777        C  0.31999924  0.14295562  0.05862988    -0.14400
C778        C  0.37285546  0.14325782  0.06912117    -0.29600
H779        H  0.29299329  0.12179753  0.08774815     0.14600
H780        H  0.40149378  0.16096387  0.03947694     0.15200
C781        C  0.70516052  0.21733416  0.46832343    -0.14400
C782        C  0.73599441  0.24450914  0.50328405    -0.29600
H783        H  0.72305741  0.20063661  0.43137106     0.14600
H784        H  0.71746626  0.25997467  0.54054585     0.15200
C785        C  0.62371886  0.13291385  0.41990360    -0.14400
C786        C  0.61844164  0.18518911  0.43129574    -0.29600
H787        H  0.64758558  0.10688878  0.44570183     0.14600
H788        H  0.59062750  0.20884722  0.40723328     0.15200
C789        C  0.62170502  0.26626992  0.48757201    -0.14400
C790        C  0.62599390  0.30690187  0.44962722    -0.29600
H791        H  0.60044510  0.27290494  0.52617986     0.14600
H792        H  0.64626982  0.30069013  0.41044770     0.15200
C793        C  0.23685981  0.98357726  0.71570811    -0.14400
C794        C  0.20431144  0.01715546  0.68739321    -0.29600
H795        H  0.21942547  0.94619740  0.73291150     0.14600
H796        H  0.22187026  0.05323169  0.66759224     0.15200
C797        C  0.77272881  0.99712325  0.69756068    -0.14400
C798        C  0.74528949  0.03801268  0.72130516    -0.29600
H799        H  0.75034596  0.96126429  0.68494714     0.14600
H800        H  0.76629570  0.07417057  0.73460999     0.15200
C801        C  0.38252008  0.12710823  0.54570955    -0.14400
C802        C  0.34424434  0.16539517  0.54681771    -0.29600
H803        H  0.40555706  0.11947515  0.50868125     0.14600
H804        H  0.32431695  0.17416291  0.58561703     0.15200
C805        C  0.58491688  0.15816498  0.54801053    -0.14400
C806        C  0.63463164  0.17597620  0.53253888    -0.29600
H807        H  0.55152604  0.16727849  0.52164889     0.14600
H808        H  0.66841048  0.16359335  0.55695608     0.15200
C809        C  0.61230120  0.85823434  0.58940210    -0.14400
C810        C  0.64894573  0.86440016  0.54811417    -0.29600
H811        H  0.59025768  0.82016105  0.59502432     0.14600
H812        H  0.67083707  0.90292559  0.54444319     0.15200
C813        C  0.34799819  0.84167485  0.56285343    -0.14400
C814        C  0.40000861  0.85255561  0.57268588    -0.29600
H815        H  0.31787158  0.85693025  0.59125534     0.14600
H816        H  0.43025955  0.83997513  0.54301008     0.15200
C817        C  0.46631214  0.26878503  0.76956727    -0.14400
C818        C  0.49715809  0.29296820  0.80801051    -0.29600
H819        H  0.43494350  0.29149869  0.74989415     0.14600
H820        H  0.52738076  0.26848063  0.82756623     0.15200
C821        C  0.52225523  0.76454326  0.78008873    -0.14400
C822        C  0.48583292  0.73192558  0.80529054    -0.29600
H823        H  0.56090638  0.74879822  0.76755360     0.14600
H824        H  0.44893594  0.75026518  0.81998404     0.15200
C825        C  0.33539916  0.14453153  0.90487644    -0.14400
C826        C  0.33663510  0.13495617  0.95898857    -0.29600
H827        H  0.30590301  0.17176886  0.88821683     0.14600
H828        H  0.36507279  0.10511899  0.97290969     0.15200
C829        C  0.34357931  0.91728122  0.94164235    -0.14400
C830        C  0.32903921  0.86615724  0.95648975    -0.29600
H831        H  0.33053652  0.95008457  0.96773870     0.14600
H832        H  0.34485507  0.83315261  0.93231418     0.15200
C833        C  0.61186496  0.92242765  0.95415416    -0.14400
C834        C  0.64867011  0.88267126  0.95595324    -0.29600
H835        H  0.59941118  0.94166793  0.99186113     0.14600
H836        H  0.66210396  0.86561630  0.91736051     0.15200
C837        C  0.65599709  0.14923746  0.93712773    -0.14400
C838        C  0.60533174  0.16106753  0.92369181    -0.29600
H839        H  0.67679445  0.11941479  0.91250732     0.14600
H840        H  0.58189308  0.18737465  0.94982453     0.15200
loop_ 
_geom_bond_atom_site_label_1 
_geom_bond_atom_site_label_2 
_geom_bond_distance 
_geom_bond_site_symmetry_2 
_ccdc_geom_bond_type 
O1           C12   1.291       .  A
O1          Eu37   2.462       .  S
O2           C13   1.291       .  A
O2          Eu36   2.458       .  S
O3           C14   1.297       .  A
O3           Eu9   2.495       .  S
O4           C15   1.296       .  A
O4           Eu9   2.483       .  S
O5           C15   1.297       .  A
O5          Eu39   2.499       .  S
O6           C14   1.291   1_565  A
O6          Eu38   2.459       .  S
O7           C13   1.299       .  A
O7           Eu9   2.508       .  S
O8           C12   1.296       .  A
O8           Eu9   2.487       .  S
Eu9          O19   2.370       .  S
Eu9          O11   2.365       .  S
Eu9          O10   2.365       .  S
Eu9          O17   2.369       .  S
O10         Eu39   2.360       .  S
O10         Eu36   2.356       .  S
O11         Eu37   2.369       .  S
O11         Eu38   2.349   1_545  S
C12         C838   1.479       .  S
C13         C805   1.487       .  S
C14         C798   1.483       .  S
C15         C817   1.488       .  S
H16          O17   0.966       .  S
O17         Eu38   2.368   1_545  S
O17         Eu36   2.343       .  S
H18          O19   0.964       .  S
O19         Eu37   2.319       .  S
O19         Eu39   2.362       .  S
O20          C43   1.288       .  A
O20         Eu36   2.446   1_565  S
O21          C44   1.288       .  A
O21         Eu37   2.447   1_565  S
O22          C45   1.291       .  A
O22         Eu38   2.474       .  S
O23          C46   1.286       .  A
O23         Eu39   2.432       .  S
O24          C47   1.285       .  A
O24         Eu39   2.433       .  S
O25          C48   1.298       .  A
O25         Eu38   2.503       .  S
O26          C49   1.301       .  A
O26         Eu40   2.501       .  S
O27          C50   1.297       .  A
O27         Eu40   2.492       .  S
O28          C49   1.283       .  A
O28         Eu38   2.414       .  S
O29          C50   1.298   1_545  A
O29         Eu39   2.506       .  S
O30          C45   1.295       .  A
O30         Eu36   2.484   1_565  S
O31          C48   1.292       .  A
O31         Eu37   2.464   1_565  S
O32          C47   1.297       .  A
O32         Eu37   2.485       .  S
O33          C46   1.291       .  A
O33         Eu36   2.458       .  S
O34          C43   1.297       .  A
O34         Eu40   2.494       .  S
O35          C44   1.301       .  A
O35         Eu40   2.522       .  S
Eu36         O54   2.354       .  S
Eu36         O42   2.342   1_545  S
Eu37         O41   2.357       .  S
Eu37         O52   2.350   1_545  S
Eu38         O52   2.378       .  S
Eu38         O42   2.347       .  S
Eu39         O41   2.360       .  S
Eu39         O54   2.367       .  S
Eu40         O41   2.359   1_565  S
Eu40         O52   2.371       .  S
Eu40         O54   2.377   1_565  S
Eu40         O42   2.355       .  S
C43         C814   1.475       .  S
C44         C829   1.491       .  S
C45         C809   1.485       .  S
C46         C801   1.465       .  S
C47         C825   1.482       .  S
C48         C833   1.494       .  S
C49         C821   1.471       .  S
C50         C793   1.500       .  S
H51          O52   0.965       .  S
H53          O54   0.966   1_565  S
C55         C781   1.520       .  S
C55         C786   1.511       .  S
C55         C789   1.511       .  S
C55         C806   1.549       .  S
O56          C67   1.285       .  A
O56         Eu92   2.430       .  S
O57          C68   1.290       .  A
O57         Eu91   2.460       .  S
O58          C69   1.293       .  A
O58         Eu64   2.473       .  S
O59          C70   1.297       .  A
O59         Eu64   2.484       .  S
O60          C70   1.284       .  A
O60         Eu94   2.420       .  S
O61          C69   1.295   1_565  A
O61         Eu93   2.475       .  S
O62          C68   1.299       .  A
O62         Eu64   2.517       .  S
O63          C67   1.291       .  A
O63         Eu64   2.453       .  S
Eu64         O74   2.384       .  S
Eu64         O66   2.358       .  S
Eu64         O65   2.347       .  S
Eu64         O72   2.356       .  S
O65         Eu94   2.355       .  S
O65         Eu91   2.322       .  S
O66         Eu92   2.340       .  S
O66         Eu93   2.329   1_545  S
C67         C785   1.451       .  S
C68         C765   1.494       .  S
C69         C742   1.489       .  S
C70         C758   1.463       .  S
H71          O72   0.965       .  S
O72         Eu93   2.369   1_545  S
O72         Eu91   2.371       .  S
H73          O74   0.966       .  S
O74         Eu92   2.348       .  S
O74         Eu94   2.361       .  S
O75          C98   1.290       .  A
O75         Eu91   2.454   1_565  S
O76          C99   1.284       .  A
O76         Eu92   2.421   1_565  S
O77         C100   1.294       .  A
O77         Eu93   2.471       .  S
O78         C101   1.285       .  A
O78         Eu94   2.433       .  S
O79         C102   1.283       .  A
O79         Eu94   2.429       .  S
O80         C103   1.295       .  A
O80         Eu93   2.488       .  S
O81         C104   1.297       .  A
O81         Eu95   2.487       .  S
O82         C105   1.287       .  A
O82         Eu95   2.439       .  S
O83         C104   1.286       .  A
O83         Eu93   2.436       .  S
O84         C105   1.293   1_545  A
O84         Eu94   2.465       .  S
O85         C100   1.279       .  A
O85         Eu91   2.394   1_565  S
O86         C103   1.286       .  A
O86         Eu92   2.437   1_565  S
O87         C102   1.292       .  A
O87         Eu92   2.473       .  S
O88         C101   1.292       .  A
O88         Eu91   2.469       .  S
O89          C98   1.295       .  A
O89         Eu95   2.483       .  S
O90          C99   1.302       .  A
O90         Eu95   2.519       .  S
Eu91        O109   2.351   1_545  S
Eu91         O97   2.344   1_545  S
Eu92         O96   2.330       .  S
Eu92        O107   2.359   1_545  S
Eu93        O107   2.359       .  S
Eu93         O97   2.343       .  S
Eu94         O96   2.335       .  S
Eu94        O109   2.349   1_545  S
Eu95         O96   2.354   1_565  S
Eu95        O107   2.350       .  S
Eu95        O109   2.382       .  S
Eu95         O97   2.332       .  S
C98         C774   1.474       .  S
C99         C746   1.482       .  S
C100        C770   1.447       .  S
C101        C778   1.466       .  S
C102        C754   1.462       .  S
C103        C750   1.473       .  S
C104        C761   1.477       .  S
C105        C737   1.468       .  S
H106        O107   0.964       .  S
H108        O109   0.965       .  S
C110        C730   1.525       .  S
C110        C733   1.528       .  S
C110        C773   1.533       .  S
C110        C830   1.549   1_554  S
C111        C722   1.530       .  S
C111        C725   1.514       .  S
C111        C769   1.516       .  S
C111        C834   1.552   1_554  S
C112        C713   1.538       .  S
C112        C717   1.541       .  S
C112        C749   1.536       .  S
C112        C810   1.547       .  S
C113        C706   1.538   1_554  S
C113        C709   1.519   1_554  S
C113        C777   1.531       .  S
C113        C826   1.534   1_554  S
C114        C698   1.531       .  S
C114        C701   1.531       .  S
C114        C766   1.553   1_556  S
C114        C837   1.536       .  S
C115        C689   1.539       .  S
C115        C693   1.520       .  S
C115        C753   1.529       .  S
C115        C802   1.536       .  S
C116        C681   1.515       .  S
C116        C685   1.514       .  S
C116        C745   1.547       .  S
C116        C813   1.538       .  S
O117        C128   1.296       .  A
O117       Eu153   2.490       .  S
O118        C129   1.295   1_455  A
O118       Eu152   2.488       .  S
O119        C130   1.301       .  A
O119       Eu125   2.520       .  S
O120        C131   1.299       .  A
O120       Eu125   2.504       .  S
O121        C131   1.284       .  A
O121       Eu155   2.422       .  S
O122        C130   1.282       .  A
O122       Eu154   2.412       .  S
O123        C129   1.291       .  A
O123       Eu125   2.458       .  S
O124        C128   1.293       .  A
O124       Eu125   2.465       .  S
Eu125       O135   2.377       .  S
Eu125       O127   2.331       .  S
Eu125       O126   2.351       .  S
Eu125       O133   2.365       .  S
O126       Eu155   2.355       .  S
O126       Eu152   2.353   1_655  S
O127       Eu153   2.338       .  S
O127       Eu154   2.329       .  S
C128        C714   1.493       .  S
C129        C641   1.482       .  S
C130        C669   1.476       .  S
C131        C661   1.468       .  S
H132        O133   0.967       .  S
O133       Eu154   2.377       .  S
O133       Eu152   2.357   1_655  S
H134        O135   0.965       .  S
O135       Eu153   2.358       .  S
O135       Eu155   2.375       .  S
O136        C159   1.292       .  A
O136       Eu152   2.469       .  S
O137        C160   1.297   1_655  A
O137       Eu153   2.488       .  S
O138        C161   1.289       .  A
O138       Eu154   2.451   1_455  S
O139        C162   1.292       .  A
O139       Eu155   2.468   1_455  S
O140        C163   1.292       .  A
O140       Eu155   2.470       .  S
O141        C164   1.289       .  A
O141       Eu154   2.455       .  S
O142        C165   1.284       .  A
O142       Eu156   2.435       .  S
O143        C166   1.284       .  A
O143       Eu156   2.433       .  S
O144        C165   1.294       .  A
O144       Eu154   2.480   1_455  S
O145        C166   1.293       .  A
O145       Eu155   2.475   1_455  S
O146        C161   1.295       .  A
O146       Eu152   2.491       .  S
O147        C164   1.293       .  A
O147       Eu153   2.469       .  S
O148        C163   1.296       .  A
O148       Eu153   2.490       .  S
O149        C162   1.289       .  A
O149       Eu152   2.451       .  S
O150        C159   1.287       .  A
O150       Eu156   2.429       .  S
O151        C160   1.285       .  A
O151       Eu156   2.428       .  S
Eu152       O170   2.362       .  S
Eu152       O158   2.360       .  S
Eu153       O157   2.358   1_655  S
Eu153       O168   2.385       .  S
Eu154       O168   2.361       .  S
Eu154       O158   2.329   1_655  S
Eu155       O157   2.336   1_655  S
Eu155       O170   2.344   1_655  S
Eu156       O157   2.348       .  S
Eu156       O168   2.362   1_455  S
Eu156       O170   2.347       .  S
Eu156       O158   2.346       .  S
C159        C682   1.470       .  S
C160        C645   1.473       .  S
C161        C665   1.474       .  S
C162        C650   1.465       .  S
C163        C657   1.488       .  S
C164        C673   1.471       .  S
C165        C677   1.469       .  S
C166        C653   1.462       .  S
H167        O168   0.967       .  S
H169        O170   0.965       .  S
O171        C182   1.279       .  A
O171       Eu207   2.394       .  S
O172        C183   1.294       .  A
O172       Eu206   2.479       .  S
O173        C184   1.301       .  A
O173       Eu179   2.516       .  S
O174        C185   1.298       .  A
O174       Eu179   2.500       .  S
O175        C185   1.297       .  A
O175       Eu209   2.495       .  S
O176        C184   1.287       .  A
O176       Eu208   2.438       .  S
O177        C183   1.291   1_655  A
O177       Eu179   2.449       .  S
O178        C182   1.299       .  A
O178       Eu179   2.506       .  S
Eu179       O189   2.367       .  S
Eu179       O181   2.335       .  S
Eu179       O180   2.373       .  S
Eu179       O187   2.387       .  S
O180       Eu209   2.359       .  S
O180       Eu206   2.362   1_655  S
O181       Eu207   2.341       .  S
O181       Eu208   2.360       .  S
C182        C782   1.464       .  S
C183        C601   1.469       .  S
C184        C609   1.481       .  S
C185        C633   1.497       .  S
H186        O187   0.965       .  S
O187       Eu208   2.326       .  S
O187       Eu206   2.362   1_655  S
H188        O189   0.964       .  S
O189       Eu207   2.353       .  S
O189       Eu209   2.356       .  S
O190        C213   1.299       .  A
O190       Eu206   2.502       .  S
O191        C214   1.280       .  A
O191       Eu207   2.410       .  S
O192        C215   1.296       .  A
O192       Eu208   2.483   1_455  S
O193        C216   1.291       .  A
O193       Eu209   2.463   1_455  S
O194        C217   1.296       .  A
O194       Eu209   2.479       .  S
O195        C218   1.287       .  A
O195       Eu208   2.436       .  S
O196        C219   1.288       .  A
O196       Eu210   2.450       .  S
O197        C220   1.282       .  A
O197       Eu210   2.410       .  S
O198        C219   1.287       .  A
O198       Eu208   2.439   1_455  S
O199        C220   1.302       .  A
O199       Eu209   2.505   1_455  S
O200        C215   1.288       .  A
O200       Eu206   2.452       .  S
O201        C218   1.291       .  A
O201       Eu207   2.452       .  S
O202        C217   1.292       .  A
O202       Eu207   2.475       .  S
O203        C216   1.287       .  A
O203       Eu206   2.434       .  S
O204        C213   1.291       .  A
O204       Eu210   2.460       .  S
O205        C214   1.298   1_455  A
O205       Eu210   2.497       .  S
Eu206       O224   2.345       .  S
Eu206       O212   2.351       .  S
Eu207       O211   2.336       .  S
Eu207       O222   2.363       .  S
Eu208       O222   2.362       .  S
Eu208       O212   2.337   1_655  S
Eu209       O211   2.360       .  S
Eu209       O224   2.334   1_655  S
Eu210       O211   2.350   1_455  S
Eu210       O222   2.343   1_455  S
Eu210       O224   2.367       .  S
Eu210       O212   2.354       .  S
C213        C690   1.486       .  S
C214        C605   1.472       .  S
C215        C621   1.488       .  S
C216        C637   1.466       .  S
C217        C630   1.494       .  S
C218        C613   1.462       .  S
C219        C618   1.460       .  S
C220        C626   1.475       .  S
H221        O222   0.966       .  S
H223        O224   0.964       .  S
C225        C593   1.522       .  S
C225        C597   1.527       .  S
C225        C614   1.516       .  S
C225        C658   1.552       .  S
C226        C586   1.518       .  S
C226        C589   1.527       .  S
C226        C617   1.524       .  S
C226        C654   1.530       .  S
C227        C581   1.530   1_565  S
C227        C634   1.554   1_565  S
C227        C670   1.542       .  S
C227        C741   1.536       .  S
C228        C577   1.514   1_565  S
C228        C629   1.550   1_565  S
C228        C674   1.536       .  S
C228        C797   1.534       .  S
C229        C569   1.527       .  S
C229        C573   1.525       .  S
C229        C610   1.539       .  S
C229        C662   1.532       .  S
C230        C562   1.528       .  S
C230        C566   1.527       .  S
C230        C622   1.541       .  S
C230        C649   1.528       .  S
C231        C557   1.522       .  S
C231        C638   1.530       .  S
C231        C666   1.544   1_545  S
C231        C738   1.516       .  S
C232        C553   1.527       .  S
C232        C625   1.532       .  S
C232        C678   1.531   1_545  S
C232        C794   1.548       .  S
O233        C244   1.281       .  A
O233       Eu269   2.416       .  S
O234        C245   1.293       .  A
O234       Eu268   2.469       .  S
O235        C246   1.286       .  A
O235       Eu241   2.440       .  S
O236        C247   1.279       .  A
O236       Eu241   2.397       .  S
O237        C247   1.299       .  A
O237       Eu271   2.492       .  S
O238        C246   1.289       .  A
O238       Eu270   2.444       .  S
O239        C245   1.292       .  A
O239       Eu241   2.469       .  S
O240        C244   1.298   1_554  A
O240       Eu241   2.501       .  S
Eu241       O251   2.348   1_554  S
Eu241       O243   2.337   1_554  S
Eu241       O242   2.370       .  S
Eu241       O249   2.351       .  S
O242       Eu271   2.332       .  S
O242       Eu268   2.339       .  S
O243       Eu269   2.354       .  S
O243       Eu270   2.352   1_556  S
C244        C721   1.477       .  S
C245        C570   1.482       .  S
C246        C525   1.453       .  S
C247        C550   1.456       .  S
H248        O249   0.965       .  S
O249       Eu270   2.353       .  S
O249       Eu268   2.364       .  S
H250        O251   0.966       .  S
O251       Eu269   2.331       .  S
O251       Eu271   2.367   1_556  S
O252        C275   1.291       .  A
O252       Eu268   2.464       .  S
O253        C276   1.279       .  A
O253       Eu269   2.399       .  S
O254        C277   1.299       .  A
O254       Eu270   2.494       .  S
O255        C278   1.294       .  A
O255       Eu271   2.476       .  S
O256        C279   1.290       .  A
O256       Eu271   2.442   1_556  S
O257        C280   1.295       .  A
O257       Eu270   2.478   1_556  S
O258        C281   1.293       .  A
O258       Eu272   2.476       .  S
O259        C282   1.294       .  A
O259       Eu272   2.473       .  S
O260        C281   1.289       .  A
O260       Eu270   2.446   1_556  S
O261        C282   1.295       .  A
O261       Eu271   2.478   1_556  S
O262        C277   1.287       .  A
O262       Eu268   2.440       .  S
O263        C280   1.286       .  A
O263       Eu269   2.435       .  S
O264        C279   1.292       .  A
O264       Eu269   2.475       .  S
O265        C278   1.289       .  A
O265       Eu268   2.457       .  S
O266        C275   1.295   1_556  A
O266       Eu272   2.481       .  S
O267        C276   1.299       .  A
O267       Eu272   2.502       .  S
Eu268       O286   2.357       .  S
Eu268       O274   2.343       .  S
Eu269       O273   2.343       .  S
Eu269       O284   2.361       .  S
Eu270       O284   2.368   1_554  S
Eu270       O274   2.332       .  S
Eu271       O273   2.352   1_554  S
Eu271       O286   2.364       .  S
Eu272       O273   2.356       .  S
Eu272       O284   2.350       .  S
Eu272       O286   2.375   1_556  S
Eu272       O274   2.350   1_556  S
C275        C697   1.483       .  S
C276        C594   1.467       .  S
C277        C521   1.482       .  S
C278        C537   1.480       .  S
C279        C545   1.480       .  S
C280        C530   1.463       .  S
C281        C533   1.468       .  S
C282        C542   1.485       .  S
H283        O284   0.965       .  S
H285        O286   0.966       .  S
O287        C298   1.295       .  A
O287       Eu323   2.486       .  S
O288        C299   1.297       .  A
O288       Eu322   2.486       .  S
O289        C300   1.283       .  A
O289       Eu295   2.432       .  S
O290        C301   1.282       .  A
O290       Eu295   2.414       .  S
O291        C301   1.292       .  A
O291       Eu325   2.468   1_554  S
O292        C300   1.299       .  A
O292       Eu324   2.497       .  S
O293        C299   1.286       .  A
O293       Eu295   2.438       .  S
O294        C298   1.288   1_554  A
O294       Eu295   2.443       .  S
Eu295       O305   2.364   1_554  S
Eu295       O297   2.342   1_554  S
Eu295       O296   2.332       .  S
Eu295       O303   2.362       .  S
O296       Eu325   2.338   1_554  S
O296       Eu322   2.344       .  S
O297       Eu323   2.354       .  S
O297       Eu324   2.337   1_556  S
C298        C729   1.479       .  S
C299        C561   1.471       .  S
C300        C497   1.488       .  S
C301        C513   1.456       .  S
H302        O303   0.964       .  S
O303       Eu324   2.320       .  S
O303       Eu322   2.378       .  S
H304        O305   0.966       .  S
O305       Eu323   2.366       .  S
O305       Eu325   2.359       .  S
O306        C329   1.295       .  A
O306       Eu322   2.485       .  S
O307        C330   1.295       .  A
O307       Eu323   2.471       .  S
O308        C331   1.287       .  A
O308       Eu324   2.438       .  S
O309        C332   1.289       .  A
O309       Eu325   2.439   1_554  S
O310        C333   1.289       .  A
O310       Eu325   2.449       .  S
O311        C334   1.290       .  A
O311       Eu324   2.459   1_556  S
O312        C335   1.296       .  A
O312       Eu326   2.475       .  S
O313        C336   1.289       .  A
O313       Eu326   2.460       .  S
O314        C335   1.279       .  A
O314       Eu324   2.393   1_556  S
O315        C336   1.300       .  A
O315       Eu325   2.505       .  S
O316        C331   1.296       .  A
O316       Eu322   2.494       .  S
O317        C334   1.290       .  A
O317       Eu323   2.459       .  S
O318        C333   1.288       .  A
O318       Eu323   2.445       .  S
O319        C332   1.291       .  A
O319       Eu322   2.463       .  S
O320        C329   1.295   1_556  A
O320       Eu326   2.487       .  S
O321        C330   1.289       .  A
O321       Eu326   2.450       .  S
Eu322       O340   2.384       .  S
Eu322       O328   2.333       .  S
Eu323       O327   2.356       .  S
Eu323       O338   2.355       .  S
Eu324       O338   2.350   1_554  S
Eu324       O328   2.366       .  S
Eu325       O327   2.335       .  S
Eu325       O340   2.337   1_556  S
Eu326       O327   2.346       .  S
Eu326       O338   2.371       .  S
Eu326       O340   2.354   1_556  S
Eu326       O328   2.345   1_556  S
C329        C705   1.486       .  S
C330        C585   1.472       .  S
C331        C494   1.474       .  S
C332        C517   1.457       .  S
C333        C510   1.454       .  S
C334        C502   1.467       .  S
C335        C489   1.446       .  S
C336        C505   1.499       .  S
H337        O338   0.965       .  S
H339        O340   0.965       .  S
C341        C485   1.524   1_455  S
C341        C501   1.528       .  S
C341        C546   1.532   1_455  S
C341        C646   1.526   1_455  S
C342        C481   1.533       .  S
C342        C490   1.522   1_655  S
C342        C541   1.549       .  S
C342        C606   1.523       .  S
C343        C477   1.526       .  S
C343        C509   1.534       .  S
C343        C529   1.530       .  S
C343        C822   1.523       .  S
C344        C474   1.526       .  S
C344        C514   1.529       .  S
C344        C526   1.533       .  S
C344        C762   1.526       .  S
C345        C469   1.529       .  S
C345        C493   1.543   1_655  S
C345        C538   1.544       .  S
C345        C602   1.519       .  S
C346        C465   1.535       .  S
C346        C498   1.531   1_655  S
C346        C549   1.518       .  S
C346        C642   1.535       .  S
C347        C462   1.518       .  S
C347        C506   1.545       .  S
C347        C534   1.531       .  S
C347        C818   1.541       .  S
C348        C458   1.530       .  S
C348        C518   1.524       .  S
C348        C522   1.537       .  S
C348        C757   1.521       .  S
O349        C360   1.294       .  A
O349       Eu385   2.487       .  S
O350        C361   1.292       .  A
O350       Eu384   2.476       .  S
O351        C362   1.297       .  A
O351       Eu357   2.504       .  S
O352        C363   1.298       .  A
O352       Eu357   2.509       .  S
O353        C363   1.283       .  A
O353       Eu387   2.396       .  S
O354        C362   1.285       .  A
O354       Eu386   2.413       .  S
O355        C361   1.288       .  A
O355       Eu357   2.422       .  S
O356        C360   1.281       .  A
O356       Eu357   2.389       .  S
Eu357       O367   2.348       .  S
Eu357       O359   2.344       .  S
Eu357       O358   2.352       .  S
Eu357       O365   2.347       .  S
O358       Eu387   2.353       .  S
O358       Eu384   2.358       .  S
O359       Eu385   2.344       .  S
O359       Eu386   2.346       .  S
C360        C790   1.471       .  S
C361        C461   1.478       .  S
C362        C598   1.486       .  S
C363        C694   1.480       .  S
H364        O365   0.966       .  S
O365       Eu386   2.348       .  S
O365       Eu384   2.360       .  S
H366        O367   0.965       .  S
O367       Eu385   2.340       .  S
O367       Eu387   2.327       .  S
O368        C391   1.298       .  A
O368       Eu384   2.511       .  S
O369        C392   1.294       .  A
O369       Eu385   2.483       .  S
O370        C393   1.299       .  A
O370       Eu386   2.516       .  S
O371        C394   1.295       .  A
O371       Eu387   2.489       .  S
O372        C395   1.299       .  A
O372       Eu387   2.515       .  S
O373        C396   1.298       .  A
O373       Eu386   2.505       .  S
O374        C397   1.302       .  A
O374       Eu388   2.522       .  S
O375        C398   1.302       .  A
O375       Eu388   2.526       .  S
O376        C397   1.285       .  A
O376       Eu386   2.412       .  S
O377        C398   1.279       .  A
O377       Eu387   2.379       .  S
O378        C393   1.282       .  A
O378       Eu384   2.397       .  S
O379        C396   1.281       .  A
O379       Eu385   2.388       .  S
O380        C395   1.281       .  A
O380       Eu385   2.392       .  S
O381        C394   1.286       .  A
O381       Eu384   2.418       .  S
O382        C391   1.279       .  A
O382       Eu388   2.375       .  S
O383        C392   1.283       .  A
O383       Eu388   2.399       .  S
Eu384       O402   2.336       .  S
Eu384       O390   2.345       .  S
Eu385       O389   2.338       .  S
Eu385       O400   2.351       .  S
Eu386       O400   2.363       .  S
Eu386       O390   2.351       .  S
Eu387       O389   2.342       .  S
Eu387       O402   2.350       .  S
Eu388       O389   2.340       .  S
Eu388       O400   2.352       .  S
Eu388       O402   2.343       .  S
Eu388       O390   2.349       .  S
C391        C686   1.484       .  S
C392        C473   1.467       .  S
C393        C478   1.488       .  S
C394        C590   1.477       .  S
C395        C457   1.482       .  S
C396        C574   1.477       .  S
C397        C718   1.488       .  S
C398        C565   1.480       .  S
H399        O400   0.965       .  S
H401        O402   0.965       .  S
O403        C414   1.303       .  A
O403       Eu439   2.533       .  S
O404        C415   1.297       .  A
O404       Eu438   2.494   1_455  S
O405        C416   1.296       .  A
O405       Eu411   2.499       .  S
O406        C417   1.291       .  A
O406       Eu411   2.472   1_545  S
O407        C417   1.286       .  A
O407       Eu441   2.414   1_556  S
O408        C416   1.282   1_655  A
O408       Eu440   2.396       .  S
O409        C415   1.281       .  A
O409       Eu411   2.390   1_545  S
O410        C414   1.281   1_556  A
O410       Eu411   2.398       .  S
Eu411       O421   2.348   1_566  S
Eu411       O413   2.328       .  S
Eu411       O412   2.356   1_565  S
Eu411       O419   2.346   1_455  S
O412       Eu441   2.352   1_556  S
O412       Eu438   2.353   1_455  S
O413       Eu439   2.330   1_556  S
O413       Eu440   2.339   1_455  S
C414        C734   1.489       .  S
C415        C554   1.472       .  S
C416        C486   1.476       .  S
C417        C710   1.474       .  S
H418        O419   0.966       .  S
O419       Eu440   2.342       .  S
O419       Eu438   2.361   1_565  S
H420        O421   0.965       .  S
O421       Eu439   2.344   1_545  S
O421       Eu441   2.347       .  S
O422        C445   1.301       .  A
O422       Eu438   2.524       .  S
O423        C446   1.298       .  A
O423       Eu439   2.497   1_655  S
O424        C447   1.298       .  A
O424       Eu440   2.504       .  S
O425        C448   1.296       .  A
O425       Eu441   2.489   1_556  S
O426        C449   1.298       .  A
O426       Eu441   2.507       .  S
O427        C450   1.296       .  A
O427       Eu440   2.493   1_554  S
O428        C451   1.293       .  A
O428       Eu442   2.475   1_565  S
O429        C452   1.300       .  A
O429       Eu442   2.517       .  S
O430        C451   1.283   1_556  A
O430       Eu440   2.396       .  S
O431        C452   1.284   1_455  A
O431       Eu441   2.412       .  S
O432        C447   1.279   1_545  A
O432       Eu438   2.376       .  S
O433        C450   1.288       .  A
O433       Eu439   2.431   1_655  S
O434        C449   1.284   1_565  A
O434       Eu439   2.400       .  S
O435        C448   1.284   1_655  A
O435       Eu438   2.412       .  S
O436        C445   1.284   1_554  A
O436       Eu442   2.410       .  S
O437        C446   1.287   1_545  A
O437       Eu442   2.419       .  S
Eu438       O456   2.332   1_556  S
Eu438       O444   2.330       .  S
Eu439       O443   2.363   1_465  S
Eu439       O454   2.368   1_455  S
Eu440       O454   2.363   1_556  S
Eu440       O444   2.338   1_565  S
Eu441       O443   2.348   1_455  S
Eu441       O456   2.347   1_455  S
Eu442       O443   2.344       .  S
Eu442       O454   2.377   1_545  S
Eu442       O456   2.337       .  S
Eu442       O444   2.341   1_554  S
C445        C702   1.489       .  S
C446        C582   1.481       .  S
C447        C578   1.470       .  S
C448        C482   1.472       .  S
C449        C558   1.484       .  S
C450        C466   1.486       .  S
C451        C726   1.464       .  S
C452        C470   1.485       .  S
H453        O454   0.966       .  S
H455        O456   0.965       .  S
C457        C458   1.361       .  D
C457        H459   1.084       .  S
C458        H460   1.087       .  S
C461        C462   1.349       .  D
C461        H463   1.084       .  S
C462        H464   1.089       .  S
C465        C466   1.354       .  D
C465        H467   1.088       .  S
C466        H468   1.086       .  S
C469        C470   1.360       .  D
C469        H471   1.087   1_655  S
C470        H472   1.086       .  S
C473        C474   1.354       .  D
C473        H475   1.082       .  S
C474        H476   1.088       .  S
C477        C478   1.360       .  D
C477        H479   1.086       .  S
C478        H480   1.085       .  S
C481        C482   1.359   1_655  D
C481        H483   1.087       .  S
C482        H484   1.081       .  S
C485        C486   1.356   1_655  D
C485        H487   1.088       .  S
C486        H488   1.083       .  S
C489        C490   1.331       .  D
C489        H491   1.087       .  S
C490        H492   1.089       .  S
C493        C494   1.343       .  D
C493        H495   1.088       .  S
C494        H496   1.087       .  S
C497        C498   1.338       .  D
C497        H499   1.086       .  S
C498        H500   1.090       .  S
C501        C502   1.343       .  D
C501        H503   1.088       .  S
C502        H504   1.087       .  S
C505        C506   1.346       .  D
C505        H507   1.086       .  S
C506        H508   1.088       .  S
C509        C510   1.342       .  D
C509        H511   1.089       .  S
C510        H512   1.083       .  S
C513        C514   1.341       .  D
C513        H515   1.083       .  S
C514        H516   1.088       .  S
C517        C518   1.340       .  D
C517        H519   1.088       .  S
C518        H520   1.088       .  S
C521        C522   1.342       .  D
C521        H523   1.087       .  S
C522        H524   1.088       .  S
C525        C526   1.347       .  D
C525        H527   1.075       .  S
C526        H528   1.087       .  S
C529        C530   1.349       .  D
C529        H531   1.087       .  S
C530        H532   1.077       .  S
C533        C534   1.343       .  D
C533        H535   1.087       .  S
C534        H536   1.090       .  S
C537        C538   1.358       .  D
C537        H539   1.082       .  S
C538        H540   1.087       .  S
C541        C542   1.355       .  D
C541        H543   1.087       .  S
C542        H544   1.084       .  S
C545        C546   1.349       .  D
C545        H547   1.086       .  S
C546        H548   1.088       .  S
C549        C550   1.332       .  D
C549        H551   1.091       .  S
C550        H552   1.084       .  S
C553        C554   1.361       .  D
C553        H555   1.087   1_545  S
C554        H556   1.083       .  S
C557        C558   1.358       .  D
C557        H559   1.087   1_545  S
C558        H560   1.086       .  S
C561        C562   1.341       .  D
C561        H563   1.082       .  S
C562        H564   1.087       .  S
C565        C566   1.365       .  D
C565        H567   1.084       .  S
C566        H568   1.087       .  S
C569        C570   1.350       .  D
C569        H571   1.087       .  S
C570        H572   1.087       .  S
C573        C574   1.359       .  D
C573        H575   1.089       .  S
C574        H576   1.082       .  S
C577        C578   1.359   1_545  D
C577        H579   1.087       .  S
C578        H580   1.086       .  S
C581        C582   1.358   1_545  D
C581        H583   1.087       .  S
C582        H584   1.084       .  S
C585        C586   1.344       .  D
C585        H587   1.087       .  S
C586        H588   1.089       .  S
C589        C590   1.354       .  D
C589        H591   1.088       .  S
C590        H592   1.084       .  S
C593        C594   1.336       .  D
C593        H595   1.088       .  S
C594        H596   1.088       .  S
C597        C598   1.358       .  D
C597        H599   1.087       .  S
C598        H600   1.086       .  S
C601        C602   1.352   1_455  D
C601        H603   1.087       .  S
C602        H604   1.088       .  S
C605        C606   1.338       .  D
C605        H607   1.086       .  S
C606        H608   1.088   1_655  S
C609        C610   1.346       .  D
C609        H611   1.086       .  S
C610        H612   1.089       .  S
C613        C614   1.340       .  D
C613        H615   1.087       .  S
C614        H616   1.088       .  S
C617        C618   1.346       .  D
C617        H619   1.087       .  S
C618        H620   1.086       .  S
C621        C622   1.347       .  D
C621        H623   1.086       .  S
C622        H624   1.088       .  S
C625        C626   1.336       .  D
C625        H627   1.087       .  S
C626        H628   1.087       .  S
C629        C630   1.350       .  D
C629        H631   1.087       .  S
C630        H632   1.081       .  S
C633        C634   1.358       .  D
C633        H635   1.087       .  S
C634        H636   1.087       .  S
C637        C638   1.350       .  D
C637        H639   1.084       .  S
C638        H640   1.087       .  S
C641        C642   1.357       .  D
C641        H643   1.087       .  S
C642        H644   1.086   1_655  S
C645        C646   1.341   1_455  D
C645        H647   1.084       .  S
C646        H648   1.087       .  S
C649        C650   1.344       .  D
C649        H651   1.088       .  S
C650        H652   1.086       .  S
C653        C654   1.343       .  D
C653        H655   1.084       .  S
C654        H656   1.089       .  S
C657        C658   1.354       .  D
C657        H659   1.085       .  S
C658        H660   1.088       .  S
C661        C662   1.341       .  D
C661        H663   1.087       .  S
C662        H664   1.087       .  S
C665        C666   1.350       .  D
C665        H667   1.087       .  S
C666        H668   1.087       .  S
C669        C670   1.340       .  D
C669        H671   1.084       .  S
C670        H672   1.088       .  S
C673        C674   1.337       .  D
C673        H675   1.087       .  S
C674        H676   1.089       .  S
C677        C678   1.347       .  D
C677        H679   1.086       .  S
C678        H680   1.089       .  S
C681        C682   1.350       .  D
C681        H683   1.087       .  S
C682        H684   1.086       .  S
C685        C686   1.359       .  D
C685        H687   1.087       .  S
C686        H688   1.086       .  S
C689        C690   1.350       .  D
C689        H691   1.087       .  S
C690        H692   1.087       .  S
C693        C694   1.356       .  D
C693        H695   1.088       .  S
C694        H696   1.086       .  S
C697        C698   1.352   1_554  D
C697        H699   1.087       .  S
C698        H700   1.087       .  S
C701        C702   1.361       .  D
C701        H703   1.087   1_556  S
C702        H704   1.086       .  S
C705        C706   1.360   1_554  D
C705        H707   1.086       .  S
C706        H708   1.086       .  S
C709        C710   1.352       .  D
C709        H711   1.087   1_556  S
C710        H712   1.084       .  S
C713        C714   1.357       .  D
C713        H715   1.087       .  S
C714        H716   1.086       .  S
C717        C718   1.362       .  D
C717        H719   1.087       .  S
C718        H720   1.083       .  S
C721        C722   1.340   1_556  D
C721        H723   1.087       .  S
C722        H724   1.089       .  S
C725        C726   1.350       .  D
C725        H727   1.088       .  S
C726        H728   1.087       .  S
C729        C730   1.354   1_556  D
C729        H731   1.087       .  S
C730        H732   1.087       .  S
C733        C734   1.365       .  D
C733        H735   1.087   1_554  S
C734        H736   1.086       .  S
C737        C738   1.344   1_565  D
C737        H739   1.087       .  S
C738        H740   1.089       .  S
C741        C742   1.353   1_565  D
C741        H743   1.088       .  S
C742        H744   1.086       .  S
C745        C746   1.341       .  D
C745        H747   1.088       .  S
C746        H748   1.085       .  S
C749        C750   1.345       .  D
C749        H751   1.087       .  S
C750        H752   1.087       .  S
C753        C754   1.344       .  D
C753        H755   1.088       .  S
C754        H756   1.086       .  S
C757        C758   1.338       .  D
C757        H759   1.088       .  S
C758        H760   1.083       .  S
C761        C762   1.345       .  D
C761        H763   1.087       .  S
C762        H764   1.088       .  S
C765        C766   1.353       .  D
C765        H767   1.087       .  S
C766        H768   1.087       .  S
C769        C770   1.328       .  D
C769        H771   1.089       .  S
C770        H772   1.087       .  S
C773        C774   1.342       .  D
C773        H775   1.089       .  S
C774        H776   1.086       .  S
C777        C778   1.346       .  D
C777        H779   1.089       .  S
C778        H780   1.087       .  S
C781        C782   1.337       .  D
C781        H783   1.087       .  S
C782        H784   1.088       .  S
C785        C786   1.331       .  D
C785        H787   1.086       .  S
C786        H788   1.090       .  S
C789        C790   1.356       .  D
C789        H791   1.087       .  S
C790        H792   1.086       .  S
C793        C794   1.361   1_565  D
C793        H795   1.086       .  S
C794        H796   1.086       .  S
C797        C798   1.359   1_565  D
C797        H799   1.087       .  S
C798        H800   1.082       .  S
C801        C802   1.355       .  D
C801        H803   1.081       .  S
C802        H804   1.086       .  S
C805        C806   1.350       .  D
C805        H807   1.087       .  S
C806        H808   1.087       .  S
C809        C810   1.351       .  D
C809        H811   1.084       .  S
C810        H812   1.088       .  S
C813        C814   1.345       .  D
C813        H815   1.087       .  S
C814        H816   1.087       .  S
C817        C818   1.361       .  D
C817        H819   1.086       .  S
C818        H820   1.088       .  S
C821        C822   1.335       .  D
C821        H823   1.085       .  S
C822        H824   1.089       .  S
C825        C826   1.339       .  D
C825        H827   1.086       .  S
C826        H828   1.087       .  S
C829        C830   1.347       .  D
C829        H831   1.087       .  S
C830        H832   1.087       .  S
C833        C834   1.356       .  D
C833        H835   1.084       .  S
C834        H836   1.086       .  S
C837        C838   1.347       .  D
C837        H839   1.088       .  S
C838        H840   1.086       .  S
