geometry optimzed in LAMMPS
_audit_creation_date              2020-11-30 
_audit_creation_method            'lammps2cif' 
_symmetry_space_group_name_H-M    'P1' 
_symmetry_Int_Tables_number       1 
_symmetry_cell_setting            triclinic 
loop_ 
_symmetry_equiv_pos_as_xyz 
  x,y,z 
_cell_length_a                    30.78355996 
_cell_length_b                    30.66930631576211 
_cell_length_c                    25.759780429903046 
_cell_angle_alpha                 90.19074038072989 
_cell_angle_beta                  89.93642773143871 
_cell_angle_gamma                 93.2339489388316 
loop_ 
_atom_site_label 
_atom_site_type_symbol 
_atom_site_fract_x 
_atom_site_fract_y 
_atom_site_fract_z 
_atom_site_charge 
O1          O  0.45064907  0.46783360  0.07619845    -0.80700
O2          O  0.05014146  0.04245809  0.07864336    -0.80700
O3          O  0.04719500  0.40563885  0.02116819    -0.80700
O4          O  0.45941988  0.06532099  0.05707556    -0.80600
O5          O  0.05583693  0.45792191  0.07796462    -0.80800
O6          O  0.39604928  0.02998478  0.04309063    -0.80700
O7          O  0.04038744  0.09612733  0.02777805    -0.80700
O8          O  0.45841578  0.41088930  0.02512177    -0.80700
C9          C  0.44376059  0.42740458  0.06682285     1.09000
C10         C  0.05781300  0.08171603  0.06812029     1.08900
C11         C  0.06193848  0.41949991  0.06477295     1.09000
C12         C  0.41810516  0.06084989  0.06540583     1.08900
O13         O  0.43509835  0.04383549  0.45035647    -0.80700
O14         O  0.10004176  0.46011231  0.47762101    -0.80700
O15         O  0.46215492  0.45324446  0.42243047    -0.80700
O16         O  0.03273632  0.06004335  0.42762425    -0.80700
O17         O  0.09134481  0.04943322  0.47520379    -0.80700
O18         O  0.41045807  0.46061002  0.47714964    -0.80700
O19         O  0.46744737  0.10840036  0.46608494    -0.80600
O20         O  0.04773748  0.45034753  0.42142435    -0.80700
Co21       Co  0.44735937  0.50660164  0.01573480     1.51500
Co22       Co  0.07128420  0.00251263  0.52694121     1.51700
Co23       Co  0.50383546  0.43331149  0.97288667     1.51600
Co24       Co  0.49508686  0.05799709  0.48940844     1.51500
O25         O  0.50998833  0.49509065  0.00009795    -1.42600
C26         C  0.43748838  0.08556050  0.44333239     1.09000
C27         C  0.08617778  0.44458203  0.43432848     1.09000
C28         C  0.42326067  0.44517124  0.43459142     1.09000
C29         C  0.07332842  0.06599505  0.43569718     1.09000
O30         O  0.34388395  0.29372639  0.27284552    -0.80700
O31         O  0.16299429  0.20490187  0.27479788    -0.80700
O32         O  0.20660027  0.30399756  0.32857357    -0.79100
O33         O  0.28688586  0.14594166  0.28391922    -0.80600
O34         O  0.15429508  0.29423267  0.27237812    -0.80800
O35         O  0.31923605  0.21050658  0.29964399    -0.80700
O36         O  0.22160281  0.19429153  0.32237698    -0.80700
O37         O  0.29218731  0.30109236  0.32756406    -0.80700
C38         C  0.33108152  0.30916533  0.31540348     1.09000
C39         C  0.18101080  0.18833930  0.31430395     1.08900
C40         C  0.16816049  0.30976519  0.31566905     1.09000
C41         C  0.31684560  0.16878181  0.30666999     1.08900
O42         O  0.35828684  0.22435006  0.20690868    -0.80700
O43         O  0.19849755  0.29641885  0.17203507    -0.80700
O44         O  0.29592768  0.34344668  0.22486966    -0.80700
O45         O  0.21395269  0.15820743  0.22222272    -0.80700
O46         O  0.20419837  0.21187696  0.17135819    -0.80700
O47         O  0.30369346  0.28650077  0.17379533    -0.80700
O48         O  0.29491445  0.18901728  0.19292463    -0.80600
O49         O  0.20714297  0.34870362  0.22882888    -0.80700
Co50       Co  0.30698201  0.24773535  0.23426154     1.51500
Co51       Co  0.18305488  0.25182251  0.22306019     1.51700
Co52       Co  0.25050856  0.32102764  0.27710748     1.51600
Co53       Co  0.25924743  0.19634455  0.26059268     1.51500
O54         O  0.24435309  0.25924869  0.24989731    -1.42600
C55         C  0.33622948  0.19348487  0.18459550     1.09000
C56         C  0.19239866  0.33484193  0.18522488     1.09000
C57         C  0.31058193  0.32693008  0.18316877     1.09000
C58         C  0.19652736  0.17261881  0.18188040     1.09000
C59         C  0.16175334  0.14825302  0.15283332    -0.00700
C60         C  0.12704522  0.17185930  0.13394870    -0.12600
C61         C  0.09262082  0.15121213  0.10633007     0.01600
C62         C  0.09258803  0.10608190  0.09716579    -0.00800
C63         C  0.12729655  0.08247562  0.11604975    -0.12500
C64         C  0.16172137  0.10312303  0.14366775     0.01400
H65         H  0.12638782  0.20662883  0.14153989     0.14400
H66         H  0.12795442  0.04770680  0.10845792     0.14400
C67         C  0.19744161  0.07776772  0.15973963     0.36100
C68         C  0.05690253  0.17656828  0.09025484     0.36000
N69         N  0.22622194  0.05743576  0.17209703    -0.44300
N70         N  0.02812402  0.19690138  0.07789419    -0.44300
C71         C  0.09949499  0.09730278  0.40318351    -0.00700
C72         C  0.13487382  0.08262288  0.37536291    -0.12600
C73         C  0.16220792  0.11183035  0.34687861     0.01600
C74         C  0.15484434  0.15703081  0.34681721    -0.00800
C75         C  0.11946541  0.17171059  0.37463771    -0.12500
C76         C  0.09213128  0.14250312  0.40312177     0.01400
H77         H  0.14092483  0.04811026  0.37553387     0.14400
H78         H  0.11341447  0.20622273  0.37446705     0.14400
C79         C  0.05833654  0.16065433  0.43380008     0.36100
C80         C  0.19600206  0.09367936  0.31619925     0.36000
N81         N  0.03209231  0.17693677  0.45815297    -0.44300
N82         N  0.22224571  0.07739680  0.29184553    -0.44300
C83         C  0.16150000  0.35913271  0.15331634    -0.00700
C84         C  0.14396482  0.33850430  0.10821274    -0.12600
C85         C  0.10997468  0.35576728  0.08029423     0.01600
C86         C  0.09283959  0.39521079  0.09667975    -0.00800
C87         C  0.11037550  0.41583980  0.14178278    -0.12500
C88         C  0.14436630  0.39857722  0.16970060     0.01400
H89         H  0.15623457  0.30795071  0.09487553     0.14400
H90         H  0.09810603  0.44639391  0.15511995     0.14400
C91         C  0.16047469  0.42214982  0.21502852     0.36100
C92         C  0.09386924  0.33219635  0.03496358     0.36000
N93         N  0.17323159  0.44117994  0.25131234    -0.44300
N94         N  0.08111520  0.31316813  0.99867706    -0.44300
C95         C  0.39702483  0.09288215  0.09876555    -0.00700
C96         C  0.35390619  0.10217760  0.08784453    -0.12600
C97         C  0.33402737  0.13614006  0.11331856     0.01600
C98         C  0.35730843  0.16144890  0.15123950    -0.00800
C99         C  0.40042651  0.15215251  0.16216185    -0.12500
C100        C  0.42030584  0.11819089  0.13668681     0.01400
H101        H  0.33605777  0.08385025  0.05786194     0.14400
H102        H  0.41827497  0.17048054  0.19214343     0.14400
C103        C  0.46386826  0.10902210  0.15230638     0.36100
C104        C  0.29046681  0.14531222  0.09769557     0.36000
N105        N  0.49859116  0.10186827  0.16575653    -0.44300
N106        N  0.25574584  0.15246958  0.08424176    -0.44300
C107        C  0.39725048  0.41239938  0.40349261    -0.00700
C108        C  0.41493981  0.39848792  0.35610822    -0.12600
C109        C  0.39552261  0.36369245  0.32776205     0.01600
C110        C  0.35709128  0.34193743  0.34650168    -0.00800
C111        C  0.33940184  0.35584890  0.39388591    -0.12500
C112        C  0.35881909  0.39064428  0.42223213     0.01400
H113        H  0.44463181  0.41455843  0.34113982     0.14400
H114        H  0.30970992  0.33977783  0.40885491     0.14400
C115        C  0.33869100  0.40247509  0.47058333     0.36100
C116        C  0.41565033  0.35186186  0.27941056     0.36000
N117        N  0.32229816  0.41179800  0.00920674    -0.44300
N118        N  0.43204392  0.34253920  0.24078545    -0.44300
C119        C  0.40634504  0.10606960  0.40802871    -0.00700
C120        C  0.41791519  0.14710711  0.38666008    -0.12600
C121        C  0.38954357  0.16814155  0.35381609     0.01600
C122        C  0.34798949  0.14827327  0.34197347    -0.00800
C123        C  0.33641946  0.10723577  0.36334213    -0.12500
C124        C  0.36479109  0.08620130  0.39618576     0.01400
H125        H  0.44964665  0.16270141  0.39503524     0.14400
H126        H  0.30468862  0.09164125  0.35496703     0.14400
C127        C  0.34915466  0.04513195  0.41851646     0.36100
C128        C  0.40518005  0.20921031  0.33148398     0.36000
N129        N  0.33582423  0.01238983  0.43613801    -0.44300
N130        N  0.41851046  0.24195188  0.31386112    -0.44300
C131        C  0.11026183  0.41272162  0.40296010    -0.00700
C132        C  0.09150430  0.39763940  0.35571022    -0.12600
C133        C  0.10762181  0.36255103  0.32808350     0.01600
C134        C  0.14407919  0.34163021  0.34703414    -0.00800
C135        C  0.16283775  0.35671365  0.39428306    -0.12500
C136        C  0.14672076  0.39180261  0.42190913     0.01400
H137        H  0.06326190  0.41283367  0.34039331     0.14400
H138        H  0.19108017  0.34152016  0.40959958     0.14400
C139        C  0.16834141  0.40492790  0.46965578     0.36100
C140        C  0.08600376  0.34942839  0.28033438     0.36000
N141        N  0.18608723  0.41510455  0.50777112    -0.44300
N142        N  0.06826000  0.33925429  0.24221688    -0.44300
C143        C  0.34244895  0.35327481  0.15068978    -0.00700
C144        C  0.37508078  0.33163733  0.12425096    -0.12600
C145        C  0.40952478  0.35487603  0.09901284     0.01600
C146        C  0.41189217  0.40105932  0.09929916    -0.00800
C147        C  0.37925988  0.42269672  0.12573707    -0.12500
C148        C  0.34481593  0.39945810  0.15097508     0.01400
H149        H  0.37461302  0.29625800  0.12468235     0.14400
H150        H  0.37972765  0.45807611  0.12530581     0.14400
C151        C  0.31166090  0.42398569  0.17544215     0.36100
C152        C  0.44268002  0.33034854  0.07454590     0.36000
N153        N  0.28501417  0.44359241  0.19494798    -0.44300
N154        N  0.46932677  0.31074158  0.05504047    -0.44300
O155        O  0.45064918  0.46783391  0.57619946    -0.80700
O156        O  0.05014132  0.04245809  0.57864363    -0.80700
O157        O  0.04719587  0.40563931  0.52116756    -0.80700
O158        O  0.45941956  0.06531997  0.55707705    -0.80600
O159        O  0.05583836  0.45792229  0.57796399    -0.80800
O160        O  0.39604870  0.02998438  0.54309147    -0.80700
O161        O  0.04038662  0.09612758  0.52777860    -0.80700
O162        O  0.45841630  0.41088910  0.52512364    -0.80700
C163        C  0.44376103  0.42740485  0.56682444     1.09000
C164        C  0.05781254  0.08171616  0.56812067     1.08900
C165        C  0.06193963  0.41950020  0.56477218     1.09000
C166        C  0.41810480  0.06084926  0.56540693     1.08900
O167        O  0.43509956  0.04383634  0.95035581    -0.80700
O168        O  0.10004219  0.46011048  0.97762259    -0.80700
O169        O  0.46215615  0.45324498  0.92242922    -0.80700
O170        O  0.03273821  0.06004334  0.92762401    -0.80700
O171        O  0.09134618  0.04943216  0.97520438    -0.80700
O172        O  0.41045888  0.46061124  0.97714783    -0.80700
O173        O  0.46744956  0.10840106  0.96608321    -0.80600
O174        O  0.04773845  0.45034725  0.92142494    -0.80700
Co175      Co  0.44735865  0.50660120  0.51573530     1.51500
Co176      Co  0.07128443  0.00251197  0.02694164     1.51700
Co177      Co  0.50383516  0.43331133  0.47288710     1.51600
Co178      Co  0.49508810  0.05799747  0.98940743     1.51500
O179        O  0.50998769  0.49509045  0.50009826    -1.42600
C180        C  0.43749036  0.08556128  0.94333094     1.09000
C181        C  0.08617814  0.44457988  0.93433019     1.09000
C182        C  0.42326167  0.44517264  0.93458961     1.09000
C183        C  0.07333035  0.06599459  0.93569766     1.09000
O184        O  0.34388519  0.29372745  0.77284383    -0.80700
O185        O  0.16299602  0.20490110  0.77479841    -0.80700
O186        O  0.20660179  0.30399780  0.82857421    -0.79100
O187        O  0.28688802  0.14594238  0.78391772    -0.80600
O188        O  0.15429608  0.29423129  0.77237943    -0.80800
O189        O  0.31923745  0.21050738  0.79964341    -0.80700
O190        O  0.22160514  0.19429139  0.82237696    -0.80700
O191        O  0.29218896  0.30109276  0.82756282    -0.80700
C192        C  0.33108296  0.30916629  0.81540191     1.09000
C193        C  0.18101307  0.18833892  0.81430440     1.08900
C194        C  0.16816136  0.30976344  0.81567055     1.09000
C195        C  0.31684767  0.16878255  0.80666862     1.08900
O196        O  0.35828769  0.22435062  0.70690783    -0.80700
O197        O  0.19849691  0.29641894  0.67203545    -0.80700
O198        O  0.29592786  0.34344684  0.72486809    -0.80700
O199        O  0.21395384  0.15820747  0.72222202    -0.80700
O200        O  0.20419885  0.21187703  0.67135788    -0.80700
O201        O  0.30369387  0.28650031  0.67379435    -0.80700
O202        O  0.29491518  0.18901838  0.69292341    -0.80600
O203        O  0.20714310  0.34870357  0.72882964    -0.80700
Co204      Co  0.30698298  0.24773567  0.73426097     1.51500
Co205      Co  0.18305558  0.25182206  0.72306063     1.51700
Co206      Co  0.25050942  0.32102786  0.77710713     1.51600
Co207      Co  0.25924884  0.19634490  0.76059185     1.51500
O208        O  0.24435398  0.25924893  0.74989714    -1.42600
C209        C  0.33623020  0.19348566  0.68459453     1.09000
C210        C  0.19239843  0.33484203  0.68522571     1.09000
C211        C  0.31058199  0.32692974  0.68316728     1.09000
C212        C  0.19652811  0.17261884  0.68187991     1.09000
C213        C  0.16175394  0.14825288  0.65283297    -0.00700
C214        C  0.12704590  0.17185932  0.63394820    -0.12600
C215        C  0.09262121  0.15121214  0.60632973     0.01600
C216        C  0.09258798  0.10608181  0.59716577    -0.00800
C217        C  0.12729646  0.08247543  0.61604971    -0.12500
C218        C  0.16172155  0.10312277  0.64366761     0.01400
H219        H  0.12638860  0.20662846  0.64153938     0.14400
H220        H  0.12795366  0.04770602  0.60845854     0.14400
C221        C  0.19744162  0.07776738  0.65973955     0.36100
C222        C  0.05690309  0.17656860  0.59025437     0.36000
N223        N  0.22622193  0.05743542  0.67209690    -0.44300
N224        N  0.02812478  0.19690201  0.57789379    -0.44300
C225        C  0.09949762  0.09730262  0.90318464    -0.00700
C226        C  0.13487646  0.08262276  0.87536380    -0.12600
C227        C  0.16221054  0.11183034  0.84687954     0.01600
C228        C  0.15484704  0.15703075  0.84681828    -0.00800
C229        C  0.11946858  0.17171062  0.87463953    -0.12500
C230        C  0.09213435  0.14250310  0.90312350     0.01400
H231        H  0.14092728  0.04811043  0.87553425     0.14400
H232        H  0.11341780  0.20622294  0.87446900     0.14400
C233        C  0.05833970  0.16065428  0.93380193     0.36100
C234        C  0.19600424  0.09367919  0.81619954     0.36000
N235        N  0.03209547  0.17693678  0.95815479    -0.44300
N236        N  0.22224768  0.07739700  0.79184510    -0.44300
C237        C  0.16150054  0.35913318  0.65331683    -0.00700
C238        C  0.14397123  0.33850829  0.60820806    -0.12600
C239        C  0.10998114  0.35577066  0.58028898     0.01600
C240        C  0.09284044  0.39521033  0.59667890    -0.00800
C241        C  0.11037064  0.41583575  0.64178691    -0.12500
C242        C  0.14436138  0.39857388  0.66970543     0.01400
H243        H  0.15624552  0.30795714  0.59486722     0.14400
H244        H  0.09809670  0.44638645  0.65512740     0.14400
C245        C  0.16046330  0.42214300  0.71503912     0.36100
C246        C  0.09388214  0.33220391  0.53495263     0.36000
N247        N  0.17321507  0.44117009  0.75132748    -0.44300
N248        N  0.08113325  0.31317884  0.49866150    -0.44300
C249        C  0.39702484  0.09288197  0.59876632    -0.00700
C250        C  0.35390624  0.10217736  0.58784517    -0.12600
C251        C  0.33402759  0.13614020  0.61331868     0.01600
C252        C  0.35730905  0.16144977  0.65123880    -0.00800
C253        C  0.40042718  0.15215354  0.66216100    -0.12500
C254        C  0.42030625  0.11819152  0.63668661     0.01400
H255        H  0.33605768  0.08384932  0.55786370     0.14400
H256        H  0.41827602  0.17048190  0.69214291     0.14400
C257        C  0.46386872  0.10902287  0.65230585     0.36100
C258        C  0.29046673  0.14531194  0.59769562     0.36000
N259        N  0.49859169  0.10186950  0.66575598    -0.44300
N260        N  0.25574559  0.15246886  0.58424204    -0.44300
C261        C  0.39725149  0.41240130  0.90349055    -0.00700
C262        C  0.41494072  0.39848984  0.85610607    -0.12600
C263        C  0.39552355  0.36369425  0.82775989     0.01600
C264        C  0.35709242  0.34193910  0.84649960    -0.00800
C265        C  0.33940286  0.35585090  0.89388364    -0.12500
C266        C  0.35882007  0.39064634  0.92222988     0.01400
H267        H  0.44463269  0.41456053  0.84113738     0.14400
H268        H  0.30971100  0.33978030  0.90885222     0.14400
C269        C  0.33869223  0.40247630  0.97058158     0.36100
C270        C  0.41565174  0.35186304  0.77940889     0.36000
N271        N  0.32229642  0.41179699  0.50920812    -0.44300
N272        N  0.43204585  0.34254010  0.74078420    -0.44300
C273        C  0.40634722  0.10607030  0.90802693    -0.00700
C274        C  0.41791789  0.14710743  0.88665738    -0.12600
C275        C  0.38954623  0.16814182  0.85381336     0.01600
C276        C  0.34799180  0.14827390  0.84197163    -0.00800
C277        C  0.33642145  0.10723661  0.86334058    -0.12500
C278        C  0.36479315  0.08620204  0.89618406     0.01400
H279        H  0.44964945  0.16270146  0.89503198     0.14400
H280        H  0.30469029  0.09164241  0.85496554     0.14400
C281        C  0.34915639  0.04513307  0.91851558     0.36100
C282        C  0.40518279  0.20921017  0.83148015     0.36000
N283        N  0.33582589  0.01239112  0.93613734    -0.44300
N284        N  0.41851329  0.24195140  0.81385653    -0.44300
C285        C  0.11026090  0.41271692  0.90296391    -0.00700
C286        C  0.09150302  0.39763432  0.85571432    -0.12600
C287        C  0.10762046  0.36254581  0.82808762     0.01600
C288        C  0.14407825  0.34162558  0.84703763    -0.00800
C289        C  0.16283593  0.35670794  0.89428743    -0.12500
C290        C  0.14671859  0.39179656  0.92191403     0.01400
H291        H  0.06326107  0.41282841  0.84039747     0.14400
H292        H  0.19107814  0.34151397  0.90960403     0.14400
C293        C  0.16833782  0.40492061  0.96966189     0.36100
C294        C  0.08600186  0.34942258  0.78033895     0.36000
N295        N  0.18608266  0.41509610  0.00777821    -0.44300
N296        N  0.06825758  0.33924816  0.74222188    -0.44300
C297        C  0.34244928  0.35327407  0.65068844    -0.00700
C298        C  0.37508751  0.33163749  0.62426007    -0.12600
C299        C  0.40953164  0.35487720  0.59902341     0.01600
C300        C  0.41189245  0.40106015  0.59930058    -0.00800
C301        C  0.37925383  0.42269672  0.62572797    -0.12500
C302        C  0.34480976  0.39945705  0.65096462     0.01400
H303        H  0.37462465  0.29625893  0.62469911     0.14400
H304        H  0.37971682  0.45807578  0.62528905     0.14400
C305        C  0.31164746  0.42398254  0.67542005     0.36100
C306        C  0.44269415  0.33035157  0.57456839     0.36000
N307        N  0.28499474  0.44358747  0.69491643    -0.44300
N308        N  0.46934703  0.31074650  0.55507254    -0.44300
O309        O  0.45064589  0.96783415  0.07619714    -0.80700
O310        O  0.05013570  0.54246406  0.07864273    -0.80700
O311        O  0.04719559  0.90563113  0.02117150    -0.80700
O312        O  0.45942601  0.56531865  0.05707555    -0.80600
O313        O  0.05584034  0.95791539  0.07796598    -0.80800
O314        O  0.39605433  0.52998496  0.04309011    -0.80700
O315        O  0.04038402  0.59613398  0.02777822    -0.80700
O316        O  0.45841214  0.91089159  0.02511793    -0.80700
C317        C  0.44375781  0.92740527  0.06682034     1.09000
C318        C  0.05780841  0.58172203  0.06812092     1.08900
C319        C  0.06193948  0.91949244  0.06477581     1.09000
C320        C  0.41811117  0.56084962  0.06540513     1.08900
O321        O  0.43510255  0.54383150  0.45035496    -0.80700
O322        O  0.10004374  0.96010362  0.47762242    -0.80700
O323        O  0.46215065  0.95324998  0.42242883    -0.80700
O324        O  0.03273336  0.56005020  0.42762321    -0.80700
O325        O  0.09134108  0.54944104  0.47520405    -0.80700
O326        O  0.41045423  0.96061268  0.47714858    -0.80700
O327        O  0.46745013  0.60839699  0.46608367    -0.80600
O328        O  0.04773862  0.95033890  0.42142672    -0.80700
Co329      Co  0.44735498  0.00660370  0.01573499     1.51500
Co330      Co  0.07128059  0.50251999  0.52694048     1.51700
Co331      Co  0.50383140  0.93331580  0.97288385     1.51600
Co332      Co  0.49509105  0.55799450  0.48940704     1.51500
O333        O  0.50998372  0.99509345  0.00009870    -1.42600
C334        C  0.43749138  0.58555656  0.44333133     1.09000
C335        C  0.08617892  0.94457299  0.43433042     1.09000
C336        C  0.42325681  0.94517507  0.43458990     1.09000
C337        C  0.07332524  0.56600194  0.43569669     1.09000
O338        O  0.34388648  0.79372327  0.27284936    -0.80700
O339        O  0.16299768  0.70489897  0.27479385    -0.80700
O340        O  0.20660216  0.80398877  0.32857571    -0.79100
O341        O  0.28688855  0.64593729  0.28391709    -0.80600
O342        O  0.15429879  0.79422804  0.27237760    -0.80800
O343        O  0.31923958  0.71050184  0.29964283    -0.80700
O344        O  0.22160533  0.69428740  0.32237451    -0.80700
O345        O  0.29218963  0.80108680  0.32756826    -0.80700
C346        C  0.33108369  0.80916111  0.31540781     1.09000
C347        C  0.18101322  0.68833694  0.31430085     1.08900
C348        C  0.16816292  0.80975760  0.31567045     1.09000
C349        C  0.31684842  0.66877697  0.30666832     1.08900
O350        O  0.35829148  0.72435061  0.20690887    -0.80700
O351        O  0.19850419  0.79641824  0.17203609    -0.80700
O352        O  0.29593039  0.84344512  0.22487687    -0.80700
O353        O  0.21395622  0.65820505  0.22221940    -0.80700
O354        O  0.20420386  0.71187549  0.17135565    -0.80700
O355        O  0.30369632  0.78650154  0.17379892    -0.80700
O356        O  0.29492040  0.68901521  0.19292411    -0.80600
O357        O  0.20714563  0.84870037  0.22883379    -0.80700
Co358      Co  0.30698574  0.74773328  0.23426242     1.51500
Co359      Co  0.18305959  0.75182009  0.22305827     1.51700
Co360      Co  0.25051092  0.82102294  0.27711213     1.51600
Co361      Co  0.25925119  0.69634097  0.26059133     1.51500
O362        O  0.24435696  0.75924515  0.24989793    -1.42600
C363        C  0.33623546  0.69348489  0.18459501     1.09000
C364        C  0.19240255  0.83484008  0.18522855     1.09000
C365        C  0.31058451  0.82693060  0.18317478     1.09000
C366        C  0.19653085  0.67261749  0.18187758     1.09000
C367        C  0.16175402  0.64825355  0.15283231    -0.00700
C368        C  0.12704850  0.67186250  0.13394531    -0.12600
C369        C  0.09262151  0.65121704  0.10632892     0.01600
C370        C  0.09258428  0.60608612  0.09716758    -0.00800
C371        C  0.12728942  0.58247710  0.11605538    -0.12500
C372        C  0.16171602  0.60312240  0.14367231     0.01400
H373        H  0.12639461  0.70663243  0.14153375     0.14400
H374        H  0.12794328  0.54770703  0.10846741     0.14400
C375        C  0.19743110  0.57776297  0.15975047     0.36100
C376        C  0.05690499  0.67657563  0.09025332     0.36000
N377        N  0.22620698  0.55742711  0.17211323    -0.44300
N378        N  0.02812763  0.69691057  0.07789330    -0.44300
C379        C  0.09949267  0.59730759  0.40318194    -0.00700
C380        C  0.13487111  0.58262508  0.37536305    -0.12600
C381        C  0.16220701  0.61183050  0.34687875     0.01600
C382        C  0.15484507  0.65703132  0.34681502    -0.00800
C383        C  0.11946630  0.67171376  0.37463357    -0.12500
C384        C  0.09213069  0.64250835  0.40311828     0.01400
H385        H  0.14092058  0.54811211  0.37553578     0.14400
H386        H  0.11341682  0.70622681  0.37446118     0.14400
C387        C  0.05833670  0.66066144  0.43379597     0.36100
C388        C  0.19600203  0.59367733  0.31620270     0.36000
N389        N  0.03209292  0.67694499  0.45814848    -0.44300
N390        N  0.22224679  0.57739346  0.29185211    -0.44300
C391        C  0.16150159  0.85912949  0.15332175    -0.00700
C392        C  0.14397673  0.83850623  0.10820970    -0.12600
C393        C  0.10998463  0.85576589  0.08029130     0.01600
C394        C  0.09283842  0.89520211  0.09668424    -0.00800
C395        C  0.11036272  0.91582497  0.14179675    -0.12500
C396        C  0.14435443  0.89856502  0.16971557     0.01400
H397        H  0.15625620  0.80795878  0.09486557     0.14400
H398        H  0.09808338  0.94637279  0.15514066     0.14400
C399        C  0.16044880  0.92213038  0.21505520     0.36100
C400        C  0.09388864  0.83219926  0.03495321     0.36000
N401        N  0.17319373  0.94115458  0.25134884    -0.44300
N402        N  0.08114210  0.81317376  0.99866125    -0.44300
C403        C  0.39703175  0.59288392  0.09876307    -0.00700
C404        C  0.35391424  0.60218154  0.08783971    -0.12600
C405        C  0.33403537  0.63614342  0.11331458     0.01600
C406        C  0.35731589  0.66145097  0.15123736    -0.00800
C407        C  0.40043356  0.65215359  0.16216073    -0.12500
C408        C  0.42031246  0.61819136  0.13668607     0.01400
H409        H  0.33606594  0.58385478  0.05785615     0.14400
H410        H  0.41828148  0.67048040  0.19214448     0.14400
C411        C  0.46387309  0.60901884  0.15230915     0.36100
C412        C  0.29047427  0.64531491  0.09769275     0.36000
N413        N  0.49859424  0.60186141  0.16576235    -0.44300
N414        N  0.25575243  0.65247112  0.08424092    -0.44300
C415        C  0.39724812  0.91240109  0.40349265    -0.00700
C416        C  0.41493801  0.89848906  0.35610881    -0.12600
C417        C  0.39552237  0.86369162  0.32776428     0.01600
C418        C  0.35709225  0.84193511  0.34650505    -0.00800
C419        C  0.33940234  0.85584727  0.39388874    -0.12500
C420        C  0.35881807  0.89064448  0.42223338     0.01400
H421        H  0.44462868  0.91456075  0.34113943     0.14400
H422        H  0.30971124  0.83977547  0.40885812     0.14400
C423        C  0.33869004  0.90247500  0.47058477     0.36100
C424        C  0.41565093  0.85186031  0.27941323     0.36000
N425        N  0.32229789  0.91179814  0.00920834    -0.44300
N426        N  0.43204465  0.84253685  0.24078849    -0.44300
C427        C  0.40634743  0.60606505  0.40802786    -0.00700
C428        C  0.41791770  0.64710218  0.38665841    -0.12600
C429        C  0.38954614  0.66813618  0.35381409     0.01600
C430        C  0.34799192  0.64826807  0.34197204    -0.00800
C431        C  0.33642160  0.60723084  0.36334156    -0.12500
C432        C  0.36479343  0.58619662  0.39618552     0.01400
H433        H  0.44964896  0.66269635  0.39503301     0.14400
H434        H  0.30469046  0.59163659  0.35496701     0.14400
C435        C  0.34915739  0.54512756  0.41851746     0.36100
C436        C  0.40518327  0.70920415  0.33148051     0.36000
N437        N  0.33582728  0.51238565  0.43613979    -0.44300
N438        N  0.41851413  0.74194511  0.31385656    -0.44300
C439        C  0.11026226  0.91271197  0.40296226    -0.00700
C440        C  0.09150097  0.89762473  0.35571643    -0.12600
C441        C  0.10761904  0.86253629  0.32809049     0.01600
C442        C  0.14408131  0.84162142  0.34703675    -0.00800
C443        C  0.16284342  0.85670954  0.39428175    -0.12500
C444        C  0.14672532  0.89179792  0.42190780     0.01400
H445        H  0.06325541  0.91281456  0.34040235     0.14400
H446        H  0.19108905  0.84151999  0.40959540     0.14400
C447        C  0.16834874  0.90492702  0.46965150     0.36100
C448        C  0.08599585  0.84940701  0.28034674     0.36000
N449        N  0.18609635  0.91510620  0.50776483    -0.44300
N450        N  0.06824813  0.83922761  0.24223356    -0.44300
C451        C  0.34245042  0.85327701  0.15069610    -0.00700
C452        C  0.37507061  0.83163831  0.12423753    -0.12600
C453        C  0.40951349  0.85487523  0.09899579     0.01600
C454        C  0.41189152  0.90105855  0.09929816    -0.00800
C455        C  0.37927126  0.92269725  0.12575648    -0.12500
C456        C  0.34482868  0.89946037  0.15099863     0.01400
H457        H  0.37459457  0.79625866  0.12465467     0.14400
H458        H  0.37974728  0.95807687  0.12533915     0.14400
C459        C  0.31168795  0.92399125  0.17548946     0.36100
C460        C  0.44265558  0.83034468  0.07450701     0.36000
N461        N  0.28505319  0.94360137  0.19501455    -0.44300
N462        N  0.46929155  0.81073465  0.05498418    -0.44300
O463        O  0.45064590  0.96783479  0.57619816    -0.80700
O464        O  0.05013543  0.54246429  0.57864295    -0.80700
O465        O  0.04719651  0.90563168  0.52117065    -0.80700
O466        O  0.45942548  0.56531750  0.55707661    -0.80600
O467        O  0.05584171  0.95791550  0.57796581    -0.80800
O468        O  0.39605368  0.52998422  0.54309101    -0.80700
O469        O  0.04038315  0.59613431  0.52777863    -0.80700
O470        O  0.45841270  0.91089138  0.52511994    -0.80700
C471        C  0.44375837  0.92740575  0.56682209     1.09000
C472        C  0.05780803  0.58172230  0.56812110     1.08900
C473        C  0.06194053  0.91949260  0.56477509     1.09000
C474        C  0.41811067  0.56084876  0.56540598     1.08900
O475        O  0.43510394  0.54383229  0.95035451    -0.80700
O476        O  0.10004399  0.96010197  0.97762380    -0.80700
O477        O  0.46215206  0.95325068  0.92242738    -0.80700
O478        O  0.03273556  0.56004999  0.92762308    -0.80700
O479        O  0.09134266  0.54943982  0.97520492    -0.80700
O480        O  0.41045503  0.96061380  0.97714679    -0.80700
O481        O  0.46745223  0.60839770  0.96608224    -0.80600
O482        O  0.04773934  0.95033841  0.92142727    -0.80700
Co483      Co  0.44735431  0.00660337  0.51573564     1.51500
Co484      Co  0.07128080  0.50251918  0.02694105     1.51700
Co485      Co  0.50383107  0.93331561  0.47288456     1.51600
Co486      Co  0.49509230  0.55799490  0.98940629     1.51500
O487        O  0.50998310  0.99509324  0.50009909    -1.42600
C488        C  0.43749350  0.58555724  0.94332995     1.09000
C489        C  0.08617908  0.94457087  0.93433200     1.09000
C490        C  0.42325793  0.94517631  0.93458806     1.09000
C491        C  0.07332743  0.56600123  0.93569736     1.09000
O492        O  0.34388792  0.79372406  0.77284773    -0.80700
O493        O  0.16299958  0.70489823  0.77479461    -0.80700
O494        O  0.20660382  0.80398912  0.82857642    -0.79100
O495        O  0.28689101  0.64593781  0.78391542    -0.80600
O496        O  0.15429964  0.79422687  0.77237896    -0.80800
O497        O  0.31924109  0.71050245  0.79964243    -0.80700
O498        O  0.22160786  0.69428721  0.82237424    -0.80700
O499        O  0.29219134  0.80108694  0.82756711    -0.80700
C500        C  0.33108517  0.80916205  0.81540611     1.09000
C501        C  0.18101570  0.68833644  0.81430133     1.08900
C502        C  0.16816384  0.80975597  0.81567199     1.09000
C503        C  0.31685050  0.66877754  0.80666719     1.08900
O504        O  0.35829256  0.72435068  0.70690821    -0.80700
O505        O  0.19850340  0.79641815  0.67203660    -0.80700
O506        O  0.29593063  0.84344501  0.72487493    -0.80700
O507        O  0.21395751  0.65820487  0.72221884    -0.80700
O508        O  0.20420429  0.71187544  0.67135555    -0.80700
O509        O  0.30369705  0.78650083  0.67379796    -0.80700
O510        O  0.29492106  0.68901626  0.69292280    -0.80600
O511        O  0.20714574  0.84870016  0.72883437    -0.80700
Co512      Co  0.30698685  0.74773336  0.73426189     1.51500
Co513      Co  0.18306027  0.75181958  0.72305882     1.51700
Co514      Co  0.25051188  0.82102300  0.77711156     1.51600
Co515      Co  0.25925265  0.69634116  0.76059031     1.51500
O516        O  0.24435792  0.75924526  0.74989748    -1.42600
C517        C  0.33623614  0.69348546  0.68459391     1.09000
C518        C  0.19240230  0.83484009  0.68522924     1.09000
C519        C  0.31058490  0.82692995  0.68317313     1.09000
C520        C  0.19653157  0.67261738  0.68187734     1.09000
C521        C  0.16175455  0.64825351  0.65283207    -0.00700
C522        C  0.12704892  0.67186252  0.63394535    -0.12600
C523        C  0.09262179  0.65121724  0.60632887     0.01600
C524        C  0.09258421  0.60608628  0.59716752    -0.00800
C525        C  0.12728947  0.58247721  0.61605506    -0.12500
C526        C  0.16171623  0.60312232  0.64367207     0.01400
H527        H  0.12639526  0.70663252  0.64153368     0.14400
H528        H  0.12794311  0.54770705  0.60846742     0.14400
C529        C  0.19743127  0.57776261  0.65974988     0.36100
C530        C  0.05690533  0.67657610  0.59025373     0.36000
N531        N  0.22620700  0.55742640  0.67211230    -0.44300
N532        N  0.02812800  0.69691112  0.57789385    -0.44300
C533        C  0.09949542  0.59730712  0.90318325    -0.00700
C534        C  0.13487381  0.58262464  0.87536392    -0.12600
C535        C  0.16220975  0.61183006  0.84687947     0.01600
C536        C  0.15484810  0.65703072  0.84681608    -0.00800
C537        C  0.11946976  0.67171324  0.87463546    -0.12500
C538        C  0.09213395  0.64250788  0.90312017     0.01400
H539        H  0.14092345  0.54811200  0.87553673     0.14400
H540        H  0.11342054  0.70622589  0.87446324     0.14400
C541        C  0.05834010  0.66066132  0.93379775     0.36100
C542        C  0.19600442  0.59367705  0.81620294     0.36000
N543        N  0.03209639  0.67694522  0.95815000    -0.44300
N544        N  0.22224890  0.57739357  0.79185152    -0.44300
C545        C  0.16150187  0.85913012  0.65332238    -0.00700
C546        C  0.14398208  0.83850994  0.60820584    -0.12600
C547        C  0.10999004  0.85576896  0.58028684     0.01600
C548        C  0.09283902  0.89520182  0.59668356    -0.00800
C549        C  0.11035820  0.91582159  0.64180064    -0.12500
C550        C  0.14434976  0.89856220  0.66972016     0.01400
H551        H  0.15626532  0.80796491  0.59485899     0.14400
H552        H  0.09807477  0.94636678  0.65514763     0.14400
C553        C  0.16043809  0.92212395  0.71506511     0.36100
C554        C  0.09389961  0.83220547  0.53494406     0.36000
N555        N  0.17317830  0.94114507  0.75136308    -0.44300
N556        N  0.08115722  0.81318267  0.49864829    -0.44300
C557        C  0.39703156  0.59288318  0.59876360    -0.00700
C558        C  0.35391401  0.60218066  0.58784030    -0.12600
C559        C  0.33403527  0.63614307  0.61331443     0.01600
C560        C  0.35731606  0.66145126  0.65123627    -0.00800
C561        C  0.40043387  0.65215404  0.66215938    -0.12500
C562        C  0.42031257  0.61819134  0.63668544     0.01400
H563        H  0.33606569  0.58385351  0.55785719     0.14400
H564        H  0.41828199  0.67048120  0.69214200     0.14400
C565        C  0.46387332  0.60901925  0.65230844     0.36100
C566        C  0.29047402  0.64531427  0.59769284     0.36000
N567        N  0.49859461  0.60186233  0.66576158    -0.44300
N568        N  0.25575209  0.65247012  0.58424117    -0.44300
C569        C  0.39724922  0.91240266  0.90349027    -0.00700
C570        C  0.41493908  0.89849071  0.85610645    -0.12600
C571        C  0.39552361  0.86369313  0.82776220     0.01600
C572        C  0.35709337  0.84193646  0.84650311    -0.00800
C573        C  0.33940318  0.85584865  0.89388657    -0.12500
C574        C  0.35881892  0.89064592  0.92223105     0.01400
H575        H  0.44463041  0.91456258  0.84113680     0.14400
H576        H  0.30971207  0.83977651  0.90885639     0.14400
C577        C  0.33869134  0.90247616  0.97058286     0.36100
C578        C  0.41565249  0.85186099  0.77941177     0.36000
N579        N  0.32229620  0.91179716  0.50920987    -0.44300
N580        N  0.43204688  0.84253719  0.74078756    -0.44300
C581        C  0.40634979  0.60606568  0.90802623    -0.00700
C582        C  0.41792009  0.64710265  0.88665642    -0.12600
C583        C  0.38954857  0.66813652  0.85381188     0.01600
C584        C  0.34799435  0.64826843  0.84197003    -0.00800
C585        C  0.33642413  0.60723128  0.86333949    -0.12500
C586        C  0.36479596  0.58619707  0.89618341     0.01400
H587        H  0.44965140  0.66269688  0.89503097     0.14400
H588        H  0.30469303  0.59163690  0.85496470     0.14400
C589        C  0.34915981  0.54512794  0.91851514     0.36100
C590        C  0.40518554  0.70920451  0.83147807     0.36000
N591        N  0.33582961  0.51238598  0.93613723    -0.44300
N592        N  0.41851645  0.74194528  0.81385361    -0.44300
C593        C  0.11026114  0.91270731  0.90296585    -0.00700
C594        C  0.09149966  0.89761957  0.85572037    -0.12600
C595        C  0.10761770  0.86253108  0.82809441     0.01600
C596        C  0.14408067  0.84161710  0.84703994    -0.00800
C597        C  0.16284178  0.85670428  0.89428581    -0.12500
C598        C  0.14672337  0.89179241  0.92191215     0.01400
H599        H  0.06325424  0.91280901  0.84040660     0.14400
H600        H  0.19108775  0.84151489  0.90959947     0.14400
C601        C  0.16834557  0.90492048  0.96965686     0.36100
C602        C  0.08599393  0.84940147  0.78035110     0.36000
N603        N  0.18609251  0.91509885  0.00777090    -0.44300
N604        N  0.06824590  0.83922173  0.74223821    -0.44300
C605        C  0.34245103  0.85327585  0.65069452    -0.00700
C606        C  0.37507834  0.83163810  0.62424770    -0.12600
C607        C  0.40952125  0.85487637  0.59900767     0.01600
C608        C  0.41189183  0.90105953  0.59929978    -0.00800
C609        C  0.37926444  0.92269717  0.62574649    -0.12500
C610        C  0.34482178  0.89945900  0.65098687     0.01400
H611        H  0.37460781  0.79625889  0.62467362     0.14400
H612        H  0.37973474  0.95807643  0.62532035     0.14400
C613        C  0.31167254  0.92398748  0.67546436     0.36100
C614        C  0.44267158  0.83034803  0.57453217     0.36000
N615        N  0.28503083  0.94359553  0.69497844    -0.44300
N616        N  0.46931447  0.81074025  0.55502004    -0.44300
O617        O  0.95064186  0.46783895  0.07620090    -0.80700
O618        O  0.55013554  0.04246355  0.07864157    -0.80700
O619        O  0.54720167  0.40563704  0.02116725    -0.80700
O620        O  0.95942423  0.06531899  0.05707520    -0.80600
O621        O  0.55584207  0.45792183  0.07796128    -0.80800
O622        O  0.89605229  0.02998568  0.04309015    -0.80700
O623        O  0.54038309  0.09613428  0.02777858    -0.80700
O624        O  0.95840992  0.41089428  0.02512536    -0.80700
C625        C  0.94375469  0.42740949  0.06682653     1.09000
C626        C  0.55780867  0.08172162  0.06812021     1.08900
C627        C  0.56194388  0.41949946  0.06477211     1.09000
C628        C  0.91810919  0.06085051  0.06540447     1.08900
O629        O  0.93510278  0.04382873  0.45035625    -0.80700
O630        O  0.60004698  0.46011059  0.47761786    -0.80700
O631        O  0.96214959  0.45324947  0.42243349    -0.80700
O632        O  0.53273032  0.06005217  0.42762385    -0.80700
O633        O  0.59133921  0.04944125  0.47520281    -0.80700
O634        O  0.91045271  0.46061413  0.47715207    -0.80700
O635        O  0.96745276  0.10839359  0.46608145    -0.80600
O636        O  0.54774281  0.45034444  0.42142134    -0.80700
Co637      Co  0.94735413  0.50660601  0.01573573     1.51500
Co638      Co  0.57128019  0.00252021  0.52693856     1.51700
Co639      Co  0.00382946  0.43331491  0.97288929     1.51600
Co640      Co  0.99509142  0.05799076  0.48940848     1.51500
O641        O  0.00998335  0.49509323  0.00010139    -1.42600
C642        C  0.93749296  0.08555352  0.44333062     1.09000
C643        C  0.58618278  0.44457847  0.43432626     1.09000
C644        C  0.92325559  0.44517513  0.43459431     1.09000
C645        C  0.57332259  0.06600227  0.43569607     1.09000
O646        O  0.84388385  0.29372339  0.27285395    -0.80700
O647        O  0.66299829  0.20489478  0.27479683    -0.80700
O648        O  0.70659791  0.30398651  0.32857941    -0.79100
O649        O  0.78688976  0.14593548  0.28391749    -0.80600
O650        O  0.65429535  0.29422311  0.27238033    -0.80800
O651        O  0.81923920  0.21050038  0.29964557    -0.80700
O652        O  0.72160635  0.19428355  0.32237718    -0.80700
O653        O  0.79218645  0.30108836  0.32757241    -0.80700
C654        C  0.83108074  0.30916206  0.31541194     1.09000
C655        C  0.68101426  0.18833327  0.31430374     1.08900
C656        C  0.66815857  0.30975387  0.31567314     1.09000
C657        C  0.81684893  0.16877531  0.30666980     1.08900
O658        O  0.85828993  0.22435050  0.20691094    -0.80700
O659        O  0.69850254  0.29641337  0.17203903    -0.80700
O660        O  0.79592593  0.34344537  0.22488119    -0.80700
O661        O  0.71395632  0.15820167  0.22222136    -0.80700
O662        O  0.70420506  0.21187284  0.17135896    -0.80700
O663        O  0.80369446  0.28650229  0.17380348    -0.80700
O664        O  0.79491889  0.18901550  0.19292545    -0.80600
O665        O  0.70713971  0.34869624  0.22883563    -0.80700
Co666      Co  0.80698427  0.24773281  0.23426610     1.51500
Co667      Co  0.68305854  0.25181594  0.22306143     1.51700
Co668      Co  0.75050648  0.32102170  0.27711547     1.51600
Co669      Co  0.75925086  0.19633876  0.26059339     1.51500
O670        O  0.74435510  0.25924308  0.24990237    -1.42600
C671        C  0.83623382  0.19348501  0.18459654     1.09000
C672        C  0.69239799  0.33483459  0.18523018     1.09000
C673        C  0.81058157  0.32693149  0.18317966     1.09000
C674        C  0.69653194  0.17261464  0.18187917     1.09000
C675        C  0.66175586  0.14825151  0.15283153    -0.00700
C676        C  0.62705126  0.17186122  0.13394333    -0.12600
C677        C  0.59262463  0.15121646  0.10632577     0.01600
C678        C  0.59258587  0.10608515  0.09716584    -0.00800
C679        C  0.62729102  0.08247565  0.11605300    -0.12500
C680        C  0.66171802  0.10312056  0.14366983     0.01400
H681        H  0.62639782  0.20663132  0.14153157     0.14400
H682        H  0.62794430  0.04770564  0.10846480     0.14400
C683        C  0.69743422  0.07776142  0.15974517     0.36100
C684        C  0.55690985  0.17657649  0.09024762     0.36000
N685        N  0.72621169  0.05742669  0.17210531    -0.44300
N686        N  0.52813417  0.19691262  0.07788482    -0.44300
C687        C  0.59949016  0.09730676  0.40318090    -0.00700
C688        C  0.63486872  0.08262286  0.37536329    -0.12600
C689        C  0.66220623  0.11182744  0.34688032     0.01600
C690        C  0.65484608  0.15702855  0.34681777    -0.00800
C691        C  0.61946753  0.17171238  0.37463529    -0.12500
C692        C  0.59212983  0.14250780  0.40311794     0.01400
H693        H  0.64091703  0.04810999  0.37553620     0.14400
H694        H  0.61341931  0.20622582  0.37446251     0.14400
C695        C  0.55833462  0.16066171  0.43379299     0.36100
C696        C  0.69600099  0.09367318  0.31620457     0.36000
N697        N  0.53208973  0.17694590  0.45814302    -0.44300
N698        N  0.72224527  0.07738900  0.29185353    -0.44300
C699        C  0.66149645  0.35912194  0.15332133    -0.00700
C700        C  0.64393416  0.33847718  0.10824126    -0.12600
C701        C  0.60994680  0.35574532  0.08032287     0.01600
C702        C  0.59284279  0.39521074  0.09668297    -0.00800
C703        C  0.61040410  0.41585490  0.14176377    -0.12500
C704        C  0.64439083  0.39858626  0.16968287     0.01400
H705        H  0.65617939  0.30790632  0.09492315     0.14400
H706        H  0.59815881  0.44642582  0.15508154     0.14400
C707        C  0.66052609  0.42217474  0.21498699     0.36100
C708        C  0.59380893  0.33215517  0.03502122     0.36000
N709        N  0.67330478  0.44121701  0.25125206    -0.44300
N710        N  0.58102741  0.31311102  0.99875875    -0.44300
C711        C  0.89702963  0.09288435  0.09876310    -0.00700
C712        C  0.85391214  0.10218233  0.08783972    -0.12600
C713        C  0.83403327  0.13614410  0.11331511     0.01600
C714        C  0.85731382  0.16145112  0.15123845    -0.00800
C715        C  0.90043121  0.15215283  0.16216223    -0.12500
C716        C  0.92031013  0.11819091  0.13668684     0.01400
H717        H  0.83606418  0.08385628  0.05785561     0.14400
H718        H  0.91827913  0.17047886  0.19214681     0.14400
C719        C  0.96387049  0.10901742  0.15230974     0.36100
C720        C  0.79047246  0.14531604  0.09769289     0.36000
N721        N  0.99859160  0.10185940  0.16576245    -0.44300
N722        N  0.75575095  0.15247260  0.08424024    -0.44300
C723        C  0.89724705  0.41240096  0.40349734    -0.00700
C724        C  0.91493723  0.39848811  0.35611407    -0.12600
C725        C  0.89552088  0.36369131  0.32776929     0.01600
C726        C  0.85708981  0.34193584  0.34650940    -0.00800
C727        C  0.83939971  0.35584864  0.39389279    -0.12500
C728        C  0.85881602  0.39064557  0.42223753     0.01400
H729        H  0.94462908  0.41455922  0.34114472     0.14400
H730        H  0.80970819  0.33977772  0.40886189     0.14400
C731        C  0.83868745  0.40247752  0.47058820     0.36100
C732        C  0.91564924  0.35185972  0.27941857     0.36000
N733        N  0.82229441  0.41180167  0.00921089    -0.44300
N734        N  0.93204357  0.34253707  0.24079393    -0.44300
C735        C  0.90634881  0.10606223  0.40802748    -0.00700
C736        C  0.91791905  0.14709941  0.38665801    -0.12600
C737        C  0.88954705  0.16813396  0.35381478     0.01600
C738        C  0.84799261  0.14826600  0.34197297    -0.00800
C739        C  0.83642224  0.10722884  0.36334261    -0.12500
C740        C  0.86479414  0.08619442  0.39618630     0.01400
H741        H  0.94965047  0.16269349  0.39503221     0.14400
H742        H  0.80469027  0.09163487  0.35496865     0.14400
C743        C  0.84915761  0.04512613  0.41851959     0.36100
C744        C  0.90518348  0.20920285  0.33148282     0.36000
N745        N  0.83582711  0.01238496  0.43614339    -0.44300
N746        N  0.91851360  0.24194468  0.31386038    -0.44300
C747        C  0.61026548  0.41271468  0.40296124    -0.00700
C748        C  0.59151456  0.39764115  0.35570419    -0.12600
C749        C  0.60762870  0.36255013  0.32807882     0.01600
C750        C  0.64407648  0.34161848  0.34703767    -0.00800
C751        C  0.66282759  0.35669222  0.39429460    -0.12500
C752        C  0.64671312  0.39178287  0.42192019     0.01400
H753        H  0.56327975  0.41284382  0.34038118     0.14400
H754        H  0.69106211  0.34148927  0.40961806     0.14400
C755        C  0.66832458  0.40489710  0.46967633     0.36100
C756        C  0.58601623  0.34943472  0.28032351     0.36000
N757        N  0.68606324  0.41506564  0.50779898    -0.44300
N758        N  0.56827632  0.33926476  0.24220209    -0.44300
C759        C  0.84244839  0.35327884  0.15070268    -0.00700
C760        C  0.87507133  0.33164129  0.12424785    -0.12600
C761        C  0.90951371  0.35487927  0.09900659     0.01600
C762        C  0.91188906  0.40106276  0.09930599    -0.00800
C763        C  0.87926643  0.42270044  0.12576148    -0.12500
C764        C  0.84482383  0.39946240  0.15100260     0.01400
H765        H  0.87459778  0.29626146  0.12466773     0.14400
H766        H  0.87974014  0.45808028  0.12534166     0.14400
C767        C  0.81167934  0.42399168  0.17548840     0.36100
C768        C  0.94265790  0.33034992  0.07452051     0.36000
N769        N  0.78504147  0.44360063  0.19500893    -0.44300
N770        N  0.96929527  0.31074095  0.05499902    -0.44300
O771        O  0.95064217  0.46783926  0.57620197    -0.80700
O772        O  0.55013525  0.04246376  0.57864181    -0.80700
O773        O  0.54720236  0.40563733  0.52116644    -0.80700
O774        O  0.95942396  0.06531800  0.55707638    -0.80600
O775        O  0.55584348  0.45792191  0.57796095    -0.80800
O776        O  0.89605193  0.02998485  0.54309138    -0.80700
O777        O  0.54038203  0.09613426  0.52777916    -0.80700
O778        O  0.95841045  0.41089403  0.52512703    -0.80700
C779        C  0.94375540  0.42740969  0.56682811     1.09000
C780        C  0.55780815  0.08172179  0.56812048     1.08900
C781        C  0.56194469  0.41949943  0.56477137     1.09000
C782        C  0.91810896  0.06084955  0.56540574     1.08900
O783        O  0.93510397  0.04382953  0.95035522    -0.80700
O784        O  0.60004746  0.46010895  0.97761926    -0.80700
O785        O  0.96215066  0.45325000  0.92243239    -0.80700
O786        O  0.53273269  0.06005211  0.92762374    -0.80700
O787        O  0.59134097  0.04944031  0.97520353    -0.80700
O788        O  0.91045327  0.46061502  0.97715016    -0.80700
O789        O  0.96745480  0.10839425  0.96608013    -0.80600
O790        O  0.54774391  0.45034440  0.92142193    -0.80700
Co791      Co  0.94735368  0.50660563  0.51573650     1.51500
Co792      Co  0.57128058  0.00251954  0.02693907     1.51700
Co793      Co  0.00382932  0.43331493  0.47288979     1.51600
Co794      Co  0.99509245  0.05799105  0.98940759     1.51500
O795        O  0.00998296  0.49509326  0.50010188    -1.42600
C796        C  0.93749469  0.08555434  0.94332947     1.09000
C797        C  0.58618316  0.44457644  0.93432781     1.09000
C798        C  0.92325651  0.44517577  0.93459270     1.09000
C799        C  0.57332496  0.06600175  0.93569663     1.09000
O800        O  0.84388494  0.29372411  0.77285230    -0.80700
O801        O  0.66300010  0.20489382  0.77479726    -0.80700
O802        O  0.70659939  0.30398640  0.82857999    -0.79100
O803        O  0.78689213  0.14593582  0.78391578    -0.80600
O804        O  0.65429606  0.29422158  0.77238176    -0.80800
O805        O  0.81924062  0.21050111  0.79964476    -0.80700
O806        O  0.72160879  0.19428323  0.82237679    -0.80700
O807        O  0.79218792  0.30108845  0.82757113    -0.80700
C808        C  0.83108198  0.30916280  0.81541026     1.09000
C809        C  0.68101668  0.18833255  0.81430396     1.08900
C810        C  0.66815926  0.30975173  0.81567487     1.09000
C811        C  0.81685096  0.16877595  0.80666842     1.08900
O812        O  0.85829077  0.22435080  0.70690965    -0.80700
O813        O  0.69850168  0.29641313  0.67203931    -0.80700
O814        O  0.79592576  0.34344553  0.72487967    -0.80700
O815        O  0.71395757  0.15820147  0.72222065    -0.80700
O816        O  0.70420557  0.21187269  0.67135859    -0.80700
O817        O  0.80369468  0.28650205  0.67380225    -0.80700
O818        O  0.79491951  0.18901626  0.69292377    -0.80600
O819        O  0.70713930  0.34869588  0.72883631    -0.80700
Co820      Co  0.80698518  0.24773305  0.73426514     1.51500
Co821      Co  0.68305916  0.25181530  0.72306180     1.51700
Co822      Co  0.75050711  0.32102159  0.77711497     1.51600
Co823      Co  0.75925230  0.19633884  0.76059228     1.51500
O824        O  0.74435600  0.25924302  0.74990173    -1.42600
C825        C  0.83623443  0.19348573  0.68459480     1.09000
C826        C  0.69239753  0.33483443  0.68523081     1.09000
C827        C  0.81058162  0.32693124  0.68317833     1.09000
C828        C  0.69653259  0.17261452  0.68187880     1.09000
C829        C  0.66175629  0.14825141  0.65283129    -0.00700
C830        C  0.62705160  0.17186117  0.63394319    -0.12600
C831        C  0.59262462  0.15121650  0.60632580     0.01600
C832        C  0.59258568  0.10608544  0.59716555    -0.00800
C833        C  0.62729081  0.08247584  0.61605278    -0.12500
C834        C  0.66171808  0.10312063  0.64366968     0.01400
H835        H  0.62639816  0.20663081  0.64153156     0.14400
H836        H  0.62794409  0.04770635  0.60846446     0.14400
C837        C  0.69743427  0.07776119  0.65974453     0.36100
C838        C  0.55691020  0.17657687  0.59024768     0.36000
N839        N  0.72621165  0.05742623  0.67210451    -0.44300
N840        N  0.52813455  0.19691319  0.57788518    -0.44300
C841        C  0.59949314  0.09730640  0.90318225    -0.00700
C842        C  0.63487180  0.08262258  0.87536472    -0.12600
C843        C  0.66220935  0.11182710  0.84688163     0.01600
C844        C  0.65484920  0.15702792  0.84681899    -0.00800
C845        C  0.61947068  0.17171175  0.87463667    -0.12500
C846        C  0.59213286  0.14250723  0.90311930     0.01400
H847        H  0.64091990  0.04810977  0.87553753     0.14400
H848        H  0.61342274  0.20622453  0.87446423     0.14400
C849        C  0.55833761  0.16066145  0.93379409     0.36100
C850        C  0.69600377  0.09367310  0.81620535     0.36000
N851        N  0.53209258  0.17694592  0.95814365    -0.44300
N852        N  0.72224791  0.07738909  0.79185390    -0.44300
C853        C  0.66149589  0.35912194  0.65332245    -0.00700
C854        C  0.64393967  0.33848073  0.60823726    -0.12600
C855        C  0.60995237  0.35574828  0.58031803     0.01600
C856        C  0.59284261  0.39520983  0.59668251    -0.00800
C857        C  0.61039783  0.41585036  0.64176851    -0.12500
C858        C  0.64438454  0.39858237  0.66968829     0.01400
H859        H  0.65618949  0.30791291  0.59491586     0.14400
H860        H  0.59814768  0.44641818  0.65509001     0.14400
C861        C  0.66051315  0.42216671  0.71499832     0.36100
C862        C  0.59382058  0.33216171  0.53501080     0.36000
N863        N  0.67328673  0.44120586  0.75126805    -0.44300
N864        N  0.58104427  0.31312057  0.49874378    -0.44300
C865        C  0.89702952  0.09288388  0.59876356    -0.00700
C866        C  0.85391210  0.10218176  0.58784009    -0.12600
C867        C  0.83403346  0.13614408  0.61331460     0.01600
C868        C  0.85731425  0.16145161  0.65123722    -0.00800
C869        C  0.90043169  0.15215352  0.66216097    -0.12500
C870        C  0.92031017  0.11819098  0.63668651     0.01400
H871        H  0.83606403  0.08385502  0.55785676     0.14400
H872        H  0.91827984  0.17047976  0.69214495     0.14400
C873        C  0.96387062  0.10901788  0.65230930     0.36100
C874        C  0.79047243  0.14531568  0.59769237     0.36000
N875        N  0.99859175  0.10185994  0.66576217    -0.44300
N876        N  0.75575087  0.15247196  0.58423966    -0.44300
C877        C  0.89724792  0.41240155  0.90349567    -0.00700
C878        C  0.91493833  0.39848861  0.85611260    -0.12600
C879        C  0.89552221  0.36369170  0.82776783     0.01600
C880        C  0.85709108  0.34193630  0.84650783    -0.00800
C881        C  0.83940089  0.35584898  0.89389118    -0.12500
C882        C  0.85881699  0.39064596  0.92223592     0.01400
H883        H  0.94463026  0.41455951  0.84114380     0.14400
H884        H  0.80970907  0.33977792  0.90886015     0.14400
C885        C  0.83868852  0.40247805  0.97058646     0.36100
C886        C  0.91565070  0.35186017  0.77941713     0.36000
N887        N  0.82229333  0.41180101  0.50921269    -0.44300
N888        N  0.93204530  0.34253729  0.74079275    -0.44300
C889        C  0.90635070  0.10606318  0.90802625    -0.00700
C890        C  0.91792104  0.14710025  0.88665663    -0.12600
C891        C  0.88954908  0.16813465  0.85381319     0.01600
C892        C  0.84799455  0.14826675  0.84197162    -0.00800
C893        C  0.83642404  0.10722977  0.86334132    -0.12500
C894        C  0.86479600  0.08619534  0.89618489     0.01400
H895        H  0.94965251  0.16269435  0.89503071     0.14400
H896        H  0.80469200  0.09163572  0.85496701     0.14400
C897        C  0.84915952  0.04512698  0.91851795     0.36100
C898        C  0.90518557  0.20920333  0.83148057     0.36000
N899        N  0.83582897  0.01238570  0.93614146    -0.44300
N900        N  0.91851592  0.24194481  0.81385735    -0.44300
C901        C  0.61026403  0.41270995  0.90296462    -0.00700
C902        C  0.59151182  0.39763464  0.85570887    -0.12600
C903        C  0.60762596  0.36254345  0.82808390     0.01600
C904        C  0.64407554  0.34161399  0.84704102    -0.00800
C905        C  0.66282655  0.35668801  0.89429782    -0.12500
C906        C  0.64671179  0.39177848  0.92192361     0.01400
H907        H  0.56327639  0.41283650  0.84038614     0.14400
H908        H  0.69106191  0.34148634  0.90962013     0.14400
C909        C  0.66832312  0.40489269  0.96968003     0.36100
C910        C  0.58601174  0.34942582  0.78033066     0.36000
N911        N  0.68606181  0.41506115  0.00780271    -0.44300
N912        N  0.56827066  0.33925419  0.74221062    -0.44300
C913        C  0.84244849  0.35327823  0.65070139    -0.00700
C914        C  0.87507673  0.33164145  0.62425520    -0.12600
C915        C  0.90951939  0.35488022  0.59901522     0.01600
C916        C  0.91188961  0.40106335  0.59930736    -0.00800
C917        C  0.87926178  0.42270025  0.62575431    -0.12500
C918        C  0.84481898  0.39946140  0.65099435     0.01400
H919        H  0.87460696  0.29626223  0.62468110     0.14400
H920        H  0.87973192  0.45807943  0.62532873     0.14400
C921        C  0.81166853  0.42398932  0.67547020     0.36100
C922        C  0.94266939  0.33035221  0.57453897     0.36000
N923        N  0.78502577  0.44359688  0.69498291    -0.44300
N924        N  0.96931175  0.31074456  0.55502556    -0.44300
O925        O  0.95064587  0.96783615  0.07620397    -0.80700
O926        O  0.55014051  0.54246226  0.07863929    -0.80700
O927        O  0.54719738  0.90563969  0.02116320    -0.80700
O928        O  0.95942012  0.56532453  0.05707249    -0.80600
O929        O  0.55583644  0.95792165  0.07796119    -0.80800
O930        O  0.89604844  0.52999035  0.04308771    -0.80700
O931        O  0.54038691  0.59613258  0.02777631    -0.80700
O932        O  0.95841108  0.91088939  0.02513022    -0.80700
C933        C  0.94375727  0.92740690  0.06683084     1.09000
C934        C  0.55781203  0.58172046  0.06811830     1.08900
C935        C  0.56193929  0.91950014  0.06476905     1.09000
C936        C  0.91810496  0.56085616  0.06540087     1.08900
O937        O  0.93510009  0.54383546  0.45035462    -0.80700
O938        O  0.60004209  0.96011377  0.47761838    -0.80700
O939        O  0.96215184  0.95324415  0.42243681    -0.80700
O940        O  0.53273381  0.56005036  0.42762151    -0.80700
O941        O  0.59134330  0.54943965  0.47519926    -0.80700
O942        O  0.91045536  0.96060910  0.47715539    -0.80700
O943        O  0.96745043  0.60840024  0.46608048    -0.80600
O944        O  0.54773880  0.95035214  0.42142040    -0.80700
Co945      Co  0.94735750  0.00660103  0.01573789     1.51500
Co946      Co  0.57128510  0.50251860  0.52693644     1.51700
Co947      Co  0.00383074  0.93330823  0.97289273     1.51600
Co948      Co  0.99508845  0.55799729  0.48940705     1.51500
O949        O  0.00998643  0.99508699  0.00010319    -1.42600
C950        C  0.93749068  0.58556041  0.44332928     1.09000
C951        C  0.58617841  0.94458472  0.43432510     1.09000
C952        C  0.92325780  0.94517073  0.43459722     1.09000
C953        C  0.57332595  0.56600183  0.43569359     1.09000
O954        O  0.84388260  0.79372903  0.27284731    -0.80700
O955        O  0.66299549  0.70490381  0.27479751    -0.80700
O956        O  0.70659913  0.80399583  0.32857545    -0.79100
O957        O  0.78688755  0.64594346  0.28391725    -0.80600
O958        O  0.65429478  0.79423286  0.27237917    -0.80800
O959        O  0.81923727  0.71050815  0.29964333    -0.80700
O960        O  0.72160437  0.69429275  0.32237650    -0.80700
O961        O  0.79218592  0.80109381  0.32756631    -0.80700
C962        C  0.83108016  0.80916695  0.31540590     1.09000
C963        C  0.68101218  0.68834171  0.31430367     1.08900
C964        C  0.66815961  0.80976392  0.31567099     1.09000
C965        C  0.81684707  0.66878331  0.30666868     1.08900
O966        O  0.85828653  0.72435517  0.20690741    -0.80700
O967        O  0.69849823  0.79642077  0.17203622    -0.80700
O968        O  0.79592549  0.84345002  0.22487305    -0.80700
O969        O  0.71395328  0.65820937  0.22222230    -0.80700
O970        O  0.70419887  0.71187899  0.17135805    -0.80700
O971        O  0.80369061  0.78650415  0.17379787    -0.80700
O972        O  0.79491496  0.68902077  0.19292296    -0.80600
O973        O  0.70714050  0.84870470  0.22883139    -0.80700
Co974      Co  0.80698146  0.74773797  0.23426242     1.51500
Co975      Co  0.68305520  0.75182404  0.22306041     1.51700
Co976      Co  0.75050673  0.82102888  0.27711012     1.51600
Co977      Co  0.75924836  0.69634642  0.26059192     1.51500
O978        O  0.74435273  0.75925027  0.24989871    -1.42600
C979        C  0.83622966  0.69349084  0.18459204     1.09000
C980        C  0.69239747  0.83484323  0.18522659     1.09000
C981        C  0.81057928  0.82693325  0.18317205     1.09000
C982        C  0.69652740  0.67262096  0.18188041     1.09000
C983        C  0.66175207  0.64825553  0.15283472    -0.00700
C984        C  0.62704400  0.67186227  0.13395033    -0.12600
C985        C  0.59261893  0.65121538  0.10633194     0.01600
C986        C  0.59258626  0.60608550  0.09716605    -0.00800
C987        C  0.62729379  0.58247858  0.11605139    -0.12500
C988        C  0.66171853  0.60312534  0.14367037     0.01400
H989        H  0.62638697  0.70663120  0.14154170     0.14400
H990        H  0.62795077  0.54770953  0.10846004     0.14400
C991        C  0.69743634  0.57776843  0.15974581     0.36100
C992        C  0.55689920  0.67657131  0.09025997     0.36000
N993        N  0.72621481  0.55743513  0.17210620    -0.44300
N994        N  0.52811878  0.69690305  0.07790237    -0.44300
C995        C  0.59949218  0.59730880  0.40317960    -0.00700
C996        C  0.63487083  0.58262762  0.37536009    -0.12600
C997        C  0.66220683  0.61183423  0.34687779     0.01600
C998        C  0.65484507  0.65703506  0.34681727    -0.00800
C999        C  0.61946607  0.67171635  0.37463633    -0.12500
C1000       C  0.59213006  0.64250963  0.40311880     0.01400
H1001       H  0.64092042  0.54811456  0.37553073     0.14400
H1002       H  0.61341652  0.70622934  0.37446540     0.14400
C1003       C  0.55833545  0.66066140  0.43379692     0.36100
C1004       C  0.69600190  0.59368234  0.31620067     0.36000
N1005       N  0.53209128  0.67694394  0.45814983    -0.44300
N1006       N  0.72224631  0.57739903  0.29184892    -0.44300
C1007       C  0.66149853  0.85913290  0.15331705    -0.00700
C1008       C  0.64396284  0.83850322  0.10821430    -0.12600
C1009       C  0.60997354  0.85576636  0.08029430     0.01600
C1010       C  0.59283998  0.89521126  0.09667714    -0.00800
C1011       C  0.61037618  0.91584127  0.14177944    -0.12500
C1012       C  0.64436591  0.89857852  0.16969898     0.01400
H1013       H  0.65623096  0.80794781  0.09487947     0.14400
H1014       H  0.59810816  0.94639649  0.15511429     0.14400
C1015       C  0.66047560  0.92215321  0.21502478     0.36100
C1016       C  0.59386559  0.83219319  0.03496664     0.36000
N1017       N  0.67323435  0.94118512  0.25130654    -0.44300
N1018       N  0.58110873  0.81316277  0.99868300    -0.44300
C1019       C  0.89702531  0.59289157  0.09875715    -0.00700
C1020       C  0.85390742  0.60218858  0.08783457    -0.12600
C1021       C  0.83402834  0.63615018  0.11331006     0.01600
C1022       C  0.85730935  0.66145802  0.15123234    -0.00800
C1023       C  0.90042763  0.65216195  0.16215354    -0.12500
C1024       C  0.92030640  0.61820005  0.13667873     0.01400
H1025       H  0.83605892  0.58386121  0.05785189     0.14400
H1026       H  0.91827601  0.67048883  0.19213708     0.14400
C1027       C  0.96386727  0.60902846  0.15230121     0.36100
C1028       C  0.79046664  0.64532095  0.09768931     0.36000
N1029       N  0.99858869  0.60187191  0.16575408    -0.44300
N1030       N  0.75574445  0.65247680  0.08423839    -0.44300
C1031       C  0.89724840  0.91239929  0.40349800    -0.00700
C1032       C  0.91493764  0.89848955  0.35611286    -0.12600
C1033       C  0.89552081  0.86369463  0.32776567     0.01600
C1034       C  0.85709022  0.84193817  0.34650536    -0.00800
C1035       C  0.83940109  0.85584783  0.39389062    -0.12500
C1036       C  0.85881779  0.89064298  0.42223761     0.01400
H1037       H  0.94462923  0.91456185  0.34114382     0.14400
H1038       H  0.80971013  0.83977567  0.40885932     0.14400
C1039       C  0.83868954  0.90247256  0.47058919     0.36100
C1040       C  0.91564789  0.85186610  0.27941299     0.36000
N1041       N  0.82229604  0.91179568  0.00921268    -0.44300
N1042       N  0.93204160  0.84254573  0.24078715    -0.44300
C1043       C  0.90634677  0.60606966  0.40802626    -0.00700
C1044       C  0.91791705  0.64710717  0.38665743    -0.12600
C1045       C  0.88954498  0.66814229  0.35381475     0.01600
C1046       C  0.84799085  0.64827427  0.34197222    -0.00800
C1047       C  0.83642050  0.60723683  0.36334131    -0.12500
C1048       C  0.86479237  0.58620202  0.39618459     0.01400
H1049       H  0.94964808  0.66270129  0.39503236     0.14400
H1050       H  0.80468928  0.59164280  0.35496665     0.14400
C1051       C  0.84915546  0.54513375  0.41851766     0.36100
C1052       C  0.90518109  0.70921212  0.33148486     0.36000
N1053       N  0.83582504  0.51239255  0.43614140    -0.44300
N1054       N  0.91851134  0.74195464  0.31386433    -0.44300
C1055       C  0.61026088  0.91272203  0.40295832    -0.00700
C1056       C  0.59149810  0.89763217  0.35571426    -0.12600
C1057       C  0.60761561  0.86254241  0.32808999     0.01600
C1058       C  0.64407849  0.84162878  0.34703630    -0.00800
C1059       C  0.66284170  0.85671923  0.39427985    -0.12500
C1060       C  0.64672442  0.89180916  0.42190394     0.01400
H1061       H  0.56325180  0.91282038  0.34040095     0.14400
H1062       H  0.69108797  0.84153078  0.40959334     0.14400
C1063       C  0.66834984  0.90494223  0.46964503     0.36100
C1064       C  0.58599122  0.84941050  0.28034783     0.36000
N1065       N  0.68609894  0.91512567  0.50775592    -0.44300
N1066       N  0.56824238  0.83922831  0.24223635    -0.44300
C1067       C  0.84244697  0.85327707  0.15069463    -0.00700
C1068       C  0.87509125  0.83164087  0.12427725    -0.12600
C1069       C  0.90953505  0.85488102  0.09904132     0.01600
C1070       C  0.91188945  0.90106380  0.09930874    -0.00800
C1071       C  0.87924522  0.92270013  0.12572619    -0.12500
C1072       C  0.84480105  0.89945987  0.15096170     0.01400
H1073       H  0.87463317  0.79626245  0.12472429     0.14400
H1074       H  0.87970358  0.95807907  0.12527891     0.14400
C1075       C  0.81163102  0.92398353  0.17540412     0.36100
C1076       C  0.94270357  0.83035663  0.07459643     0.36000
N1077       N  0.78497181  0.94358718  0.19488914    -0.44300
N1078       N  0.96936132  0.81075271  0.05510874    -0.44300
O1079       O  0.95064640  0.96783610  0.57620495    -0.80700
O1080       O  0.55014017  0.54246225  0.57863950    -0.80700
O1081       O  0.54719803  0.90563993  0.52116271    -0.80700
O1082       O  0.95941992  0.56532344  0.55707387    -0.80600
O1083       O  0.55583785  0.95792171  0.57796105    -0.80800
O1084       O  0.89604813  0.52998995  0.54308879    -0.80700
O1085       O  0.54038579  0.59613263  0.52777671    -0.80700
O1086       O  0.95841187  0.91088901  0.52513141    -0.80700
C1087       C  0.94375798  0.92740681  0.56683191     1.09000
C1088       C  0.55781156  0.58172048  0.56811842     1.08900
C1089       C  0.56194027  0.91950014  0.56476848     1.09000
C1090       C  0.91810479  0.56085541  0.56540221     1.08900
O1091       O  0.93510113  0.54383632  0.95035396    -0.80700
O1092       O  0.60004263  0.96011220  0.97761977    -0.80700
O1093       O  0.96215282  0.95324457  0.92243586    -0.80700
O1094       O  0.53273590  0.56005020  0.92762159    -0.80700
O1095       O  0.59134495  0.54943870  0.97519997    -0.80700
O1096       O  0.91045570  0.96060997  0.97715382    -0.80700
O1097       O  0.96745261  0.60840079  0.96607896    -0.80600
O1098       O  0.54773976  0.95035246  0.92142092    -0.80700
Co1099     Co  0.94735713  0.00660048  0.51573871     1.51500
Co1100     Co  0.57128549  0.50251802  0.02693697     1.51700
Co1101     Co  0.00383071  0.93330823  0.47289295     1.51600
Co1102     Co  0.99508960  0.55799747  0.98940605     1.51500
O1103       O  0.00998610  0.99508689  0.50010374    -1.42600
C1104       C  0.93749252  0.58556117  0.94332807     1.09000
C1105       C  0.58617875  0.94458298  0.93432658     1.09000
C1106       C  0.92325845  0.94517168  0.93459565     1.09000
C1107       C  0.57332805  0.56600128  0.93569422     1.09000
O1108       O  0.84388356  0.79372977  0.77284601    -0.80700
O1109       O  0.66299710  0.70490276  0.77479786    -0.80700
O1110       O  0.70660032  0.80399550  0.82857632    -0.79100
O1111       O  0.78688961  0.64594373  0.78391592    -0.80600
O1112       O  0.65429546  0.79423143  0.77238055    -0.80800
O1113       O  0.81923864  0.71050870  0.79964276    -0.80700
O1114       O  0.72160633  0.69429245  0.82237615    -0.80700
O1115       O  0.79218726  0.80109373  0.82756543    -0.80700
C1116       C  0.83108127  0.80916749  0.81540468     1.09000
C1117       C  0.68101413  0.68834135  0.81430412     1.08900
C1118       C  0.66816019  0.80976197  0.81567269     1.09000
C1119       C  0.81684885  0.66878381  0.80666763     1.08900
O1120       O  0.85828736  0.72435565  0.70690635    -0.80700
O1121       O  0.69849758  0.79642055  0.67203651    -0.80700
O1122       O  0.79592542  0.84345006  0.72487196    -0.80700
O1123       O  0.71395429  0.65820893  0.72222170    -0.80700
O1124       O  0.70419931  0.71187881  0.67135775    -0.80700
O1125       O  0.80369086  0.78650407  0.67379712    -0.80700
O1126       O  0.79491554  0.68902158  0.69292173    -0.80600
O1127       O  0.70714028  0.84870411  0.72883221    -0.80700
Co1128     Co  0.80698235  0.74773829  0.73426178     1.51500
Co1129     Co  0.68305585  0.75182340  0.72306082     1.51700
Co1130     Co  0.75050735  0.82102866  0.77710995     1.51600
Co1131     Co  0.75924962  0.69634645  0.76059104     1.51500
O1132       O  0.74435358  0.75925014  0.74989839    -1.42600
C1133       C  0.83623024  0.69349152  0.68459086     1.09000
C1134       C  0.69239702  0.83484294  0.68522738     1.09000
C1135       C  0.81057921  0.82693316  0.68317099     1.09000
C1136       C  0.69652801  0.67262064  0.68188002     1.09000
C1137       C  0.66175233  0.64825528  0.65283460    -0.00700
C1138       C  0.62704432  0.67186213  0.63395016    -0.12600
C1139       C  0.59261911  0.65121545  0.60633181     0.01600
C1140       C  0.59258598  0.60608549  0.59716623    -0.00800
C1141       C  0.62729354  0.58247852  0.61605150    -0.12500
C1142       C  0.66171842  0.60312504  0.64367047     0.01400
H1143       H  0.62638740  0.70663118  0.64154135     0.14400
H1144       H  0.62795022  0.54770925  0.60846072     0.14400
C1145       C  0.69743633  0.57776812  0.65974555     0.36100
C1146       C  0.55689956  0.67657156  0.59025981     0.36000
N1147       N  0.72621470  0.55743470  0.67210585    -0.44300
N1148       N  0.52811937  0.69690360  0.57790220    -0.44300
C1149       C  0.59949478  0.59730854  0.90318089    -0.00700
C1150       C  0.63487371  0.58262744  0.87536145    -0.12600
C1151       C  0.66220964  0.61183409  0.84687895     0.01600
C1152       C  0.65484773  0.65703469  0.84681825    -0.00800
C1153       C  0.61946881  0.67171589  0.87463759    -0.12500
C1154       C  0.59213281  0.64250924  0.90312021     0.01400
H1155       H  0.64092351  0.54811494  0.87553215     0.14400
H1156       H  0.61341894  0.70622841  0.87446650     0.14400
C1157       C  0.55833819  0.66066133  0.93379811     0.36100
C1158       C  0.69600451  0.59368205  0.81620164     0.36000
N1159       N  0.53209409  0.67694440  0.95815059    -0.44300
N1160       N  0.72224885  0.57739899  0.79184958    -0.44300
C1161       C  0.66149848  0.85913307  0.65331794    -0.00700
C1162       C  0.64396786  0.83850641  0.60821084    -0.12600
C1163       C  0.60997861  0.85576897  0.58029022     0.01600
C1164       C  0.59284030  0.89521068  0.59667667    -0.00800
C1165       C  0.61037124  0.91583755  0.64178359    -0.12500
C1166       C  0.64436088  0.89857529  0.66970379     0.01400
H1167       H  0.65624018  0.80795353  0.59487285     0.14400
H1168       H  0.59809960  0.94639044  0.65512123     0.14400
C1169       C  0.66046520  0.92214663  0.71503465     0.36100
C1170       C  0.59387635  0.83219930  0.53495740     0.36000
N1171       N  0.67321944  0.94117600  0.75132027    -0.44300
N1172       N  0.58112406  0.81317157  0.49866977    -0.44300
C1173       C  0.89702525  0.59289120  0.59875784    -0.00700
C1174       C  0.85390721  0.60218807  0.58783509    -0.12600
C1175       C  0.83402832  0.63615022  0.61330976     0.01600
C1176       C  0.85730962  0.66145868  0.65123112    -0.00800
C1177       C  0.90042802  0.65216269  0.66215242    -0.12500
C1178       C  0.92030659  0.61820031  0.63667845     0.01400
H1179       H  0.83605879  0.58386040  0.55785267     0.14400
H1180       H  0.91827687  0.67049038  0.69213441     0.14400
C1181       C  0.96386757  0.60902901  0.65230107     0.36100
C1182       C  0.79046661  0.64532065  0.59768924     0.36000
N1183       N  0.99858903  0.60187279  0.66575405    -0.44300
N1184       N  0.75574436  0.65247607  0.58423833    -0.44300
C1185       C  0.89724883  0.91240021  0.90349642    -0.00700
C1186       C  0.91493823  0.89849036  0.85611143    -0.12600
C1187       C  0.89552150  0.86369533  0.82776435     0.01600
C1188       C  0.85709088  0.84193888  0.84650403    -0.00800
C1189       C  0.83940160  0.85584869  0.89388918    -0.12500
C1190       C  0.85881818  0.89064390  0.92223607     0.01400
H1191       H  0.94462972  0.91456208  0.84114309     0.14400
H1192       H  0.80971017  0.83977636  0.90885825     0.14400
C1193       C  0.83869012  0.90247384  0.97058763     0.36100
C1194       C  0.91564889  0.85186689  0.77941180     0.36000
N1195       N  0.82229539  0.91179426  0.50921428    -0.44300
N1196       N  0.93204262  0.84254633  0.74078605    -0.44300
C1197       C  0.90634880  0.60607051  0.90802506    -0.00700
C1198       C  0.91791910  0.64710771  0.88665570    -0.12600
C1199       C  0.88954706  0.66814276  0.85381291     0.01600
C1200       C  0.84799266  0.64827489  0.84197094    -0.00800
C1201       C  0.83642214  0.60723784  0.86334057    -0.12500
C1202       C  0.86479402  0.58620313  0.89618390     0.01400
H1203       H  0.94965055  0.66270197  0.89503030     0.14400
H1204       H  0.80469047  0.59164399  0.85496639     0.14400
C1205       C  0.84915697  0.54513487  0.91851688     0.36100
C1206       C  0.90518347  0.70921202  0.83148160     0.36000
N1207       N  0.83582640  0.51239374  0.93614072    -0.44300
N1208       N  0.91851382  0.74195409  0.81385994    -0.44300
C1209       C  0.61025950  0.91271776  0.90296141    -0.00700
C1210       C  0.59149556  0.89762615  0.85571869    -0.12600
C1211       C  0.60761318  0.86253646  0.82809462     0.01600
C1212       C  0.64407757  0.84162460  0.84703960    -0.00800
C1213       C  0.66284086  0.85671541  0.89428299    -0.12500
C1214       C  0.64672317  0.89180508  0.92190716     0.01400
H1215       H  0.56324863  0.91281389  0.84040531     0.14400
H1216       H  0.69108764  0.84152802  0.90959589     0.14400
C1217       C  0.66834860  0.90493814  0.96964828     0.36100
C1218       C  0.58598722  0.84940264  0.78035426     0.36000
N1219       N  0.68609798  0.91512155  0.00775904    -0.44300
N1220       N  0.56823745  0.83921884  0.74224393    -0.44300
C1221       C  0.84244723  0.85327656  0.65069382    -0.00700
C1222       C  0.87509482  0.83164063  0.62428202    -0.12600
C1223       C  0.90953888  0.85488126  0.59904698     0.01600
C1224       C  0.91189000  0.90106383  0.59930957    -0.00800
C1225       C  0.87924253  0.92269984  0.62572159    -0.12500
C1226       C  0.84479806  0.89945914  0.65095612     0.01400
H1227       H  0.87463909  0.79626259  0.62473314     0.14400
H1228       H  0.87969849  0.95807823  0.62527046     0.14400
C1229       C  0.81162407  0.92398206  0.67539204     0.36100
C1230       C  0.94271123  0.83035788  0.57460859     0.36000
N1231       N  0.78496154  0.94358482  0.69487167    -0.44300
N1232       N  0.96937215  0.81075479  0.55512611    -0.44300
loop_ 
_geom_bond_atom_site_label_1 
_geom_bond_atom_site_label_2 
_geom_bond_distance 
_geom_bond_site_symmetry_2 
_ccdc_geom_bond_type 
O1            C9   1.269       .  A
O1          Co21   1.969       .  S
O2           C10   1.245       .  A
O2         Co176   1.943       .  S
O3           C11   1.275       .  A
O3         Co639   2.046   1_554  S
O4           C12   1.289       .  A
O4         Co178   2.077   1_554  S
O5           C11   1.250       .  A
O5         Co484   1.939       .  S
O6           C12   1.270       .  A
O6         Co329   1.905       .  S
O7           C10   1.263       .  A
O7         Co794   2.025   1_454  S
O8            C9   1.279       .  A
O8          Co23   2.033   1_554  S
C9          C146   1.493       .  S
C10          C62   1.474       .  S
C11          C86   1.490       .  S
C12          C95   1.480       .  S
O13          C26   1.291       .  A
O13        Co483   2.085       .  S
O14          C27   1.276       .  A
O14        Co330   2.051       .  S
O15          C28   1.249       .  A
O15        Co177   1.951       .  S
O16          C29   1.270       .  A
O16        Co640   1.967   1_455  S
O17          C29   1.280       .  A
O17         Co22   2.034       .  S
O18          C28   1.264       .  A
O18        Co175   2.020       .  S
O19          C26   1.269       .  A
O19         Co24   1.905       .  S
O20          C27   1.252       .  A
O20        Co793   1.944       .  S
Co21        O314   1.905       .  S
Co21        O475   2.085   1_554  S
Co21        O172   2.020   1_554  S
Co21         O25   2.019       .  S
Co22        O156   1.943       .  S
Co22        O467   1.939   1_545  S
Co22        O322   2.051   1_545  S
Co22       O1103   2.011   1_545  S
Co23        O619   2.046   1_556  S
Co23        O169   1.951       .  S
Co23        O790   1.944       .  S
Co23         O25   2.017   1_556  S
Co24        O158   2.077       .  S
Co24        O777   2.025       .  S
Co24        O632   1.967       .  S
Co24        O487   2.028   1_545  S
O25       Co1100   2.011       .  S
O25        Co486   2.028   1_554  S
C26         C119   1.488       .  S
C27         C131   1.494       .  S
C28         C107   1.483       .  S
C29          C71   1.479       .  S
O30          C38   1.264       .  A
O30         Co50   2.020       .  S
O31          C39   1.280       .  A
O31         Co51   2.034       .  S
O32          C40   1.252       .  A
O32         Co52   1.944       .  S
O33          C41   1.269       .  A
O33         Co53   1.905       .  S
O34          C40   1.276       .  A
O34         Co51   2.051       .  S
O35          C41   1.291       .  A
O35         Co50   2.085       .  S
O36          C39   1.270       .  A
O36         Co53   1.967       .  S
O37          C38   1.249       .  A
O37         Co52   1.951       .  S
C38         C110   1.483       .  S
C39          C74   1.479       .  S
C40         C134   1.494       .  S
C41         C122   1.488       .  S
O42          C55   1.270       .  A
O42         Co50   1.905       .  S
O43          C56   1.250       .  A
O43         Co51   1.939       .  S
O44          C57   1.279       .  A
O44         Co52   2.033       .  S
O45          C58   1.263       .  A
O45         Co53   2.025       .  S
O46          C58   1.245       .  A
O46         Co51   1.943       .  S
O47          C57   1.269       .  A
O47         Co50   1.969       .  S
O48          C55   1.289       .  A
O48         Co53   2.077       .  S
O49          C56   1.275       .  A
O49         Co52   2.046       .  S
Co50         O54   2.019       .  S
Co51         O54   2.011       .  S
Co52         O54   2.017       .  S
Co53         O54   2.028       .  S
C55          C98   1.480       .  S
C56          C83   1.490       .  S
C57         C143   1.493       .  S
C58          C59   1.474       .  S
C59          C60   1.412       .  A
C59          C64   1.403       .  A
C60          C61   1.398       .  A
C60          H65   1.085       .  S
C61          C62   1.403       .  A
C61          C68   1.444       .  S
C62          C63   1.412       .  A
C63          C64   1.398       .  A
C63          H66   1.085       .  S
C64          C67   1.444       .  S
C67          N69   1.157       .  T
C68          N70   1.157       .  T
C71          C72   1.398       .  A
C71          C76   1.417       .  A
C72          C73   1.402       .  A
C72          H77   1.085       .  S
C73          C74   1.417       .  A
C73          C80   1.441       .  S
C74          C75   1.398       .  A
C75          C76   1.402       .  A
C75          H78   1.085       .  S
C76          C79   1.441       .  S
C79          N81   1.157       .  T
C80          N82   1.157       .  T
C83          C84   1.414       .  A
C83          C88   1.410       .  A
C84          C85   1.400       .  A
C84          H89   1.085       .  S
C85          C86   1.410       .  A
C85          C92   1.445       .  S
C86          C87   1.414       .  A
C87          C88   1.400       .  A
C87          H90   1.085       .  S
C88          C91   1.445       .  S
C91          N93   1.157       .  T
C92          N94   1.157   1_554  T
C95          C96   1.402       .  A
C95         C100   1.416       .  A
C96          C97   1.399       .  A
C96         H101   1.085       .  S
C97          C98   1.416       .  A
C97         C104   1.444       .  S
C98          C99   1.402       .  A
C99         C100   1.399       .  A
C99         H102   1.085       .  S
C100        C103   1.444       .  S
C103        N105   1.157       .  T
C104        N106   1.157       .  T
C107        C108   1.411       .  A
C107        C112   1.411       .  A
C108        C109   1.398       .  A
C108        H113   1.085       .  S
C109        C110   1.411       .  A
C109        C116   1.445       .  S
C110        C111   1.411       .  A
C111        C112   1.398       .  A
C111        H114   1.085       .  S
C112        C115   1.445       .  S
C115        N271   1.157       .  T
C116        N118   1.157       .  T
N117        C269   1.157   1_554  T
C119        C120   1.403       .  A
C119        C124   1.419       .  A
C120        C121   1.401       .  A
C120        H125   1.085       .  S
C121        C122   1.419       .  A
C121        C128   1.444       .  S
C122        C123   1.403       .  A
C123        C124   1.401       .  A
C123        H126   1.085       .  S
C124        C127   1.444       .  S
C127        N129   1.157       .  T
C128        N130   1.157       .  T
C131        C132   1.413       .  A
C131        C136   1.412       .  A
C132        C133   1.402       .  A
C132        H137   1.085       .  S
C133        C134   1.412       .  A
C133        C140   1.444       .  S
C134        C135   1.413       .  A
C135        C136   1.402       .  A
C135        H138   1.085       .  S
C136        C139   1.444       .  S
C139        N141   1.157       .  T
C140        N142   1.157       .  T
C143        C144   1.409       .  A
C143        C148   1.414       .  A
C144        C145   1.404       .  A
C144        H149   1.084       .  S
C145        C146   1.414       .  A
C145        C152   1.445       .  S
C146        C147   1.409       .  A
C147        C148   1.404       .  A
C147        H150   1.084       .  S
C148        C151   1.445       .  S
C151        N153   1.157       .  T
C152        N154   1.157       .  T
O155        C163   1.269       .  A
O155       Co175   1.969       .  S
O156        C164   1.245       .  A
O157        C165   1.275       .  A
O157       Co793   2.046       .  S
O158        C166   1.289       .  A
O159        C165   1.250       .  A
O159       Co330   1.939       .  S
O160        C166   1.270       .  A
O160       Co483   1.905       .  S
O161        C164   1.263       .  A
O161       Co640   2.025   1_455  S
O162        C163   1.279       .  A
O162       Co177   2.033       .  S
C163        C300   1.493       .  S
C164        C216   1.474       .  S
C165        C240   1.490       .  S
C166        C249   1.480       .  S
O167        C180   1.291       .  A
O167       Co329   2.085   1_556  S
O168        C181   1.276       .  A
O168       Co484   2.051   1_556  S
O169        C182   1.249       .  A
O170        C183   1.270       .  A
O170       Co794   1.967   1_455  S
O171        C183   1.280       .  A
O171       Co176   2.034   1_556  S
O172        C182   1.264       .  A
O173        C180   1.269       .  A
O173       Co178   1.905       .  S
O174        C181   1.252       .  A
O174       Co639   1.944       .  S
Co175       O468   1.905       .  S
Co175       O321   2.085       .  S
Co175       O179   2.019       .  S
Co176       O313   1.939   1_545  S
Co176       O476   2.051   1_544  S
Co176       O949   2.011   1_545  S
Co177       O773   2.046       .  S
Co177       O636   1.944       .  S
Co177       O179   2.017       .  S
Co178       O623   2.025   1_556  S
Co178       O786   1.967       .  S
Co178       O333   2.028   1_546  S
O179       Co946   2.011       .  S
O179       Co332   2.028       .  S
C180        C273   1.488       .  S
C181        C285   1.494       .  S
C182        C261   1.483       .  S
C183        C225   1.479       .  S
O184        C192   1.264       .  A
O184       Co204   2.020       .  S
O185        C193   1.280       .  A
O185       Co205   2.034       .  S
O186        C194   1.252       .  A
O186       Co206   1.944       .  S
O187        C195   1.269       .  A
O187       Co207   1.905       .  S
O188        C194   1.276       .  A
O188       Co205   2.051       .  S
O189        C195   1.291       .  A
O189       Co204   2.085       .  S
O190        C193   1.270       .  A
O190       Co207   1.967       .  S
O191        C192   1.249       .  A
O191       Co206   1.951       .  S
C192        C264   1.483       .  S
C193        C228   1.479       .  S
C194        C288   1.494       .  S
C195        C276   1.488       .  S
O196        C209   1.270       .  A
O196       Co204   1.905       .  S
O197        C210   1.250       .  A
O197       Co205   1.939       .  S
O198        C211   1.279       .  A
O198       Co206   2.033       .  S
O199        C212   1.263       .  A
O199       Co207   2.025       .  S
O200        C212   1.245       .  A
O200       Co205   1.943       .  S
O201        C211   1.269       .  A
O201       Co204   1.969       .  S
O202        C209   1.289       .  A
O202       Co207   2.077       .  S
O203        C210   1.275       .  A
O203       Co206   2.046       .  S
Co204       O208   2.019       .  S
Co205       O208   2.011       .  S
Co206       O208   2.017       .  S
Co207       O208   2.028       .  S
C209        C252   1.480       .  S
C210        C237   1.490       .  S
C211        C297   1.493       .  S
C212        C213   1.474       .  S
C213        C214   1.412       .  A
C213        C218   1.403       .  A
C214        C215   1.398       .  A
C214        H219   1.085       .  S
C215        C216   1.403       .  A
C215        C222   1.444       .  S
C216        C217   1.412       .  A
C217        C218   1.398       .  A
C217        H220   1.085       .  S
C218        C221   1.444       .  S
C221        N223   1.157       .  T
C222        N224   1.157       .  T
C225        C226   1.398       .  A
C225        C230   1.417       .  A
C226        C227   1.402       .  A
C226        H231   1.085       .  S
C227        C228   1.417       .  A
C227        C234   1.441       .  S
C228        C229   1.398       .  A
C229        C230   1.402       .  A
C229        H232   1.085       .  S
C230        C233   1.441       .  S
C233        N235   1.157       .  T
C234        N236   1.157       .  T
C237        C238   1.414       .  A
C237        C242   1.410       .  A
C238        C239   1.400       .  A
C238        H243   1.085       .  S
C239        C240   1.410       .  A
C239        C246   1.445       .  S
C240        C241   1.414       .  A
C241        C242   1.400       .  A
C241        H244   1.085       .  S
C242        C245   1.445       .  S
C245        N247   1.157       .  T
C246        N248   1.157       .  T
C249        C250   1.402       .  A
C249        C254   1.416       .  A
C250        C251   1.399       .  A
C250        H255   1.085       .  S
C251        C252   1.416       .  A
C251        C258   1.444       .  S
C252        C253   1.402       .  A
C253        C254   1.399       .  A
C253        H256   1.085       .  S
C254        C257   1.444       .  S
C257        N259   1.157       .  T
C258        N260   1.157       .  T
C261        C262   1.411       .  A
C261        C266   1.411       .  A
C262        C263   1.398       .  A
C262        H267   1.085       .  S
C263        C264   1.411       .  A
C263        C270   1.445       .  S
C264        C265   1.411       .  A
C265        C266   1.398       .  A
C265        H268   1.085       .  S
C266        C269   1.445       .  S
C270        N272   1.157       .  T
C273        C274   1.403       .  A
C273        C278   1.419       .  A
C274        C275   1.401       .  A
C274        H279   1.085       .  S
C275        C276   1.419       .  A
C275        C282   1.444       .  S
C276        C277   1.403       .  A
C277        C278   1.401       .  A
C277        H280   1.085       .  S
C278        C281   1.444       .  S
C281        N283   1.157       .  T
C282        N284   1.157       .  T
C285        C286   1.413       .  A
C285        C290   1.412       .  A
C286        C287   1.402       .  A
C286        H291   1.085       .  S
C287        C288   1.412       .  A
C287        C294   1.444       .  S
C288        C289   1.413       .  A
C289        C290   1.402       .  A
C289        H292   1.085       .  S
C290        C293   1.444       .  S
C293        N295   1.157   1_556  T
C294        N296   1.157       .  T
C297        C298   1.409       .  A
C297        C302   1.414       .  A
C298        C299   1.404       .  A
C298        H303   1.084       .  S
C299        C300   1.414       .  A
C299        C306   1.445       .  S
C300        C301   1.409       .  A
C301        C302   1.404       .  A
C301        H304   1.084       .  S
C302        C305   1.445       .  S
C305        N307   1.157       .  T
C306        N308   1.157       .  T
O309        C317   1.269       .  A
O309       Co329   1.969   1_565  S
O310        C318   1.245       .  A
O310       Co484   1.943       .  S
O311        C319   1.275       .  A
O311       Co947   2.046   1_554  S
O312        C320   1.289       .  A
O312       Co486   2.077   1_554  S
O313        C319   1.250       .  A
O314        C320   1.270       .  A
O315        C318   1.263       .  A
O315      Co1102   2.025   1_454  S
O316        C317   1.279       .  A
O316       Co331   2.033   1_554  S
C317        C454   1.493       .  S
C318        C370   1.474       .  S
C319        C394   1.490       .  S
C320        C403   1.480       .  S
O321        C334   1.291       .  A
O322        C335   1.276       .  A
O323        C336   1.249       .  A
O323       Co485   1.951       .  S
O324        C337   1.270       .  A
O324       Co948   1.967   1_455  S
O325        C337   1.280       .  A
O325       Co330   2.034       .  S
O326        C336   1.264       .  A
O326       Co483   2.020   1_565  S
O327        C334   1.269       .  A
O327       Co332   1.905       .  S
O328        C335   1.252       .  A
O328      Co1101   1.944       .  S
Co329       O480   2.020   1_544  S
Co329       O333   2.019   1_545  S
Co330       O464   1.943       .  S
Co330       O795   2.011       .  S
Co331       O927   2.046   1_556  S
Co331       O477   1.951       .  S
Co331      O1098   1.944       .  S
Co331       O333   2.017   1_556  S
Co332       O466   2.077       .  S
Co332      O1085   2.025       .  S
Co332       O940   1.967       .  S
O333       Co792   2.011   1_565  S
C334        C427   1.488       .  S
C335        C439   1.494       .  S
C336        C415   1.483       .  S
C337        C379   1.479       .  S
O338        C346   1.264       .  A
O338       Co358   2.020       .  S
O339        C347   1.280       .  A
O339       Co359   2.034       .  S
O340        C348   1.252       .  A
O340       Co360   1.944       .  S
O341        C349   1.269       .  A
O341       Co361   1.905       .  S
O342        C348   1.276       .  A
O342       Co359   2.051       .  S
O343        C349   1.291       .  A
O343       Co358   2.085       .  S
O344        C347   1.270       .  A
O344       Co361   1.967       .  S
O345        C346   1.249       .  A
O345       Co360   1.951       .  S
C346        C418   1.483       .  S
C347        C382   1.479       .  S
C348        C442   1.494       .  S
C349        C430   1.488       .  S
O350        C363   1.270       .  A
O350       Co358   1.905       .  S
O351        C364   1.250       .  A
O351       Co359   1.939       .  S
O352        C365   1.279       .  A
O352       Co360   2.033       .  S
O353        C366   1.263       .  A
O353       Co361   2.025       .  S
O354        C366   1.245       .  A
O354       Co359   1.943       .  S
O355        C365   1.269       .  A
O355       Co358   1.969       .  S
O356        C363   1.289       .  A
O356       Co361   2.077       .  S
O357        C364   1.275       .  A
O357       Co360   2.046       .  S
Co358       O362   2.019       .  S
Co359       O362   2.011       .  S
Co360       O362   2.017       .  S
Co361       O362   2.028       .  S
C363        C406   1.480       .  S
C364        C391   1.490       .  S
C365        C451   1.493       .  S
C366        C367   1.474       .  S
C367        C368   1.412       .  A
C367        C372   1.403       .  A
C368        C369   1.398       .  A
C368        H373   1.085       .  S
C369        C370   1.403       .  A
C369        C376   1.444       .  S
C370        C371   1.412       .  A
C371        C372   1.398       .  A
C371        H374   1.085       .  S
C372        C375   1.444       .  S
C375        N377   1.157       .  T
C376        N378   1.157       .  T
C379        C380   1.398       .  A
C379        C384   1.417       .  A
C380        C381   1.402       .  A
C380        H385   1.085       .  S
C381        C382   1.417       .  A
C381        C388   1.441       .  S
C382        C383   1.398       .  A
C383        C384   1.402       .  A
C383        H386   1.085       .  S
C384        C387   1.441       .  S
C387        N389   1.157       .  T
C388        N390   1.157       .  T
C391        C392   1.414       .  A
C391        C396   1.410       .  A
C392        C393   1.400       .  A
C392        H397   1.085       .  S
C393        C394   1.410       .  A
C393        C400   1.445       .  S
C394        C395   1.414       .  A
C395        C396   1.400       .  A
C395        H398   1.085       .  S
C396        C399   1.445       .  S
C399        N401   1.157       .  T
C400        N402   1.157   1_554  T
C403        C404   1.402       .  A
C403        C408   1.416       .  A
C404        C405   1.399       .  A
C404        H409   1.085       .  S
C405        C406   1.416       .  A
C405        C412   1.444       .  S
C406        C407   1.402       .  A
C407        C408   1.399       .  A
C407        H410   1.085       .  S
C408        C411   1.444       .  S
C411        N413   1.157       .  T
C412        N414   1.157       .  T
C415        C416   1.411       .  A
C415        C420   1.411       .  A
C416        C417   1.398       .  A
C416        H421   1.085       .  S
C417        C418   1.411       .  A
C417        C424   1.445       .  S
C418        C419   1.411       .  A
C419        C420   1.398       .  A
C419        H422   1.085       .  S
C420        C423   1.445       .  S
C423        N579   1.157       .  T
C424        N426   1.157       .  T
N425        C577   1.157   1_554  T
C427        C428   1.403       .  A
C427        C432   1.419       .  A
C428        C429   1.401       .  A
C428        H433   1.085       .  S
C429        C430   1.419       .  A
C429        C436   1.444       .  S
C430        C431   1.403       .  A
C431        C432   1.401       .  A
C431        H434   1.085       .  S
C432        C435   1.444       .  S
C435        N437   1.157       .  T
C436        N438   1.157       .  T
C439        C440   1.413       .  A
C439        C444   1.412       .  A
C440        C441   1.402       .  A
C440        H445   1.085       .  S
C441        C442   1.412       .  A
C441        C448   1.444       .  S
C442        C443   1.413       .  A
C443        C444   1.402       .  A
C443        H446   1.085       .  S
C444        C447   1.444       .  S
C447        N449   1.157       .  T
C448        N450   1.157       .  T
C451        C452   1.409       .  A
C451        C456   1.414       .  A
C452        C453   1.404       .  A
C452        H457   1.084       .  S
C453        C454   1.414       .  A
C453        C460   1.445       .  S
C454        C455   1.409       .  A
C455        C456   1.404       .  A
C455        H458   1.084       .  S
C456        C459   1.445       .  S
C459        N461   1.157       .  T
C460        N462   1.157       .  T
O463        C471   1.269       .  A
O463       Co483   1.969   1_565  S
O464        C472   1.245       .  A
O465        C473   1.275       .  A
O465      Co1101   2.046       .  S
O466        C474   1.289       .  A
O467        C473   1.250       .  A
O468        C474   1.270       .  A
O469        C472   1.263       .  A
O469       Co948   2.025   1_455  S
O470        C471   1.279       .  A
O470       Co485   2.033       .  S
C471        C608   1.493       .  S
C472        C524   1.474       .  S
C473        C548   1.490       .  S
C474        C557   1.480       .  S
O475        C488   1.291       .  A
O476        C489   1.276       .  A
O477        C490   1.249       .  A
O478        C491   1.270       .  A
O478      Co1102   1.967   1_455  S
O479        C491   1.280       .  A
O479       Co484   2.034   1_556  S
O480        C490   1.264       .  A
O481        C488   1.269       .  A
O481       Co486   1.905       .  S
O482        C489   1.252       .  A
O482       Co947   1.944       .  S
Co483       O487   2.019   1_545  S
Co484       O641   2.011       .  S
Co485      O1081   2.046       .  S
Co485       O944   1.944       .  S
Co485       O487   2.017       .  S
Co486       O931   2.025   1_556  S
Co486      O1094   1.967       .  S
O487       Co638   2.011   1_565  S
C488        C581   1.488       .  S
C489        C593   1.494       .  S
C490        C569   1.483       .  S
C491        C533   1.479       .  S
O492        C500   1.264       .  A
O492       Co512   2.020       .  S
O493        C501   1.280       .  A
O493       Co513   2.034       .  S
O494        C502   1.252       .  A
O494       Co514   1.944       .  S
O495        C503   1.269       .  A
O495       Co515   1.905       .  S
O496        C502   1.276       .  A
O496       Co513   2.051       .  S
O497        C503   1.291       .  A
O497       Co512   2.085       .  S
O498        C501   1.270       .  A
O498       Co515   1.967       .  S
O499        C500   1.249       .  A
O499       Co514   1.951       .  S
C500        C572   1.483       .  S
C501        C536   1.479       .  S
C502        C596   1.494       .  S
C503        C584   1.488       .  S
O504        C517   1.270       .  A
O504       Co512   1.905       .  S
O505        C518   1.250       .  A
O505       Co513   1.939       .  S
O506        C519   1.279       .  A
O506       Co514   2.033       .  S
O507        C520   1.263       .  A
O507       Co515   2.025       .  S
O508        C520   1.245       .  A
O508       Co513   1.943       .  S
O509        C519   1.269       .  A
O509       Co512   1.969       .  S
O510        C517   1.289       .  A
O510       Co515   2.077       .  S
O511        C518   1.275       .  A
O511       Co514   2.046       .  S
Co512       O516   2.019       .  S
Co513       O516   2.011       .  S
Co514       O516   2.017       .  S
Co515       O516   2.028       .  S
C517        C560   1.480       .  S
C518        C545   1.490       .  S
C519        C605   1.493       .  S
C520        C521   1.474       .  S
C521        C522   1.412       .  A
C521        C526   1.403       .  A
C522        C523   1.398       .  A
C522        H527   1.085       .  S
C523        C524   1.403       .  A
C523        C530   1.444       .  S
C524        C525   1.412       .  A
C525        C526   1.398       .  A
C525        H528   1.085       .  S
C526        C529   1.444       .  S
C529        N531   1.157       .  T
C530        N532   1.157       .  T
C533        C534   1.398       .  A
C533        C538   1.417       .  A
C534        C535   1.402       .  A
C534        H539   1.085       .  S
C535        C536   1.417       .  A
C535        C542   1.441       .  S
C536        C537   1.398       .  A
C537        C538   1.402       .  A
C537        H540   1.085       .  S
C538        C541   1.441       .  S
C541        N543   1.157       .  T
C542        N544   1.157       .  T
C545        C546   1.414       .  A
C545        C550   1.410       .  A
C546        C547   1.400       .  A
C546        H551   1.085       .  S
C547        C548   1.410       .  A
C547        C554   1.445       .  S
C548        C549   1.414       .  A
C549        C550   1.400       .  A
C549        H552   1.085       .  S
C550        C553   1.445       .  S
C553        N555   1.157       .  T
C554        N556   1.157       .  T
C557        C558   1.402       .  A
C557        C562   1.416       .  A
C558        C559   1.399       .  A
C558        H563   1.085       .  S
C559        C560   1.416       .  A
C559        C566   1.444       .  S
C560        C561   1.402       .  A
C561        C562   1.399       .  A
C561        H564   1.085       .  S
C562        C565   1.444       .  S
C565        N567   1.157       .  T
C566        N568   1.157       .  T
C569        C570   1.411       .  A
C569        C574   1.411       .  A
C570        C571   1.398       .  A
C570        H575   1.085       .  S
C571        C572   1.411       .  A
C571        C578   1.445       .  S
C572        C573   1.411       .  A
C573        C574   1.398       .  A
C573        H576   1.085       .  S
C574        C577   1.445       .  S
C578        N580   1.157       .  T
C581        C582   1.403       .  A
C581        C586   1.419       .  A
C582        C583   1.401       .  A
C582        H587   1.085       .  S
C583        C584   1.419       .  A
C583        C590   1.444       .  S
C584        C585   1.403       .  A
C585        C586   1.401       .  A
C585        H588   1.085       .  S
C586        C589   1.444       .  S
C589        N591   1.157       .  T
C590        N592   1.157       .  T
C593        C594   1.413       .  A
C593        C598   1.412       .  A
C594        C595   1.402       .  A
C594        H599   1.085       .  S
C595        C596   1.412       .  A
C595        C602   1.444       .  S
C596        C597   1.413       .  A
C597        C598   1.402       .  A
C597        H600   1.085       .  S
C598        C601   1.444       .  S
C601        N603   1.157   1_556  T
C602        N604   1.157       .  T
C605        C606   1.409       .  A
C605        C610   1.414       .  A
C606        C607   1.404       .  A
C606        H611   1.084       .  S
C607        C608   1.414       .  A
C607        C614   1.445       .  S
C608        C609   1.409       .  A
C609        C610   1.404       .  A
C609        H612   1.084       .  S
C610        C613   1.445       .  S
C613        N615   1.157       .  T
C614        N616   1.157       .  T
O617        C625   1.269       .  A
O617       Co637   1.969       .  S
O618        C626   1.245       .  A
O618       Co792   1.943       .  S
O619        C627   1.275       .  A
O620        C628   1.289       .  A
O620       Co794   2.077   1_554  S
O621        C627   1.250       .  A
O621      Co1100   1.939       .  S
O622        C628   1.270       .  A
O622       Co945   1.905       .  S
O623        C626   1.263       .  A
O624        C625   1.279       .  A
O624       Co639   2.033   1_654  S
C625        C762   1.493       .  S
C626        C678   1.474       .  S
C627        C702   1.490       .  S
C628        C711   1.480       .  S
O629        C642   1.291       .  A
O629      Co1099   2.085       .  S
O630        C643   1.276       .  A
O630       Co946   2.051       .  S
O631        C644   1.249       .  A
O631       Co793   1.951   1_655  S
O632        C645   1.270       .  A
O633        C645   1.280       .  A
O633       Co638   2.034       .  S
O634        C644   1.264       .  A
O634       Co791   2.020       .  S
O635        C642   1.269       .  A
O635       Co640   1.905       .  S
O636        C643   1.252       .  A
Co637       O930   1.905       .  S
Co637      O1091   2.085   1_554  S
Co637       O788   2.020   1_554  S
Co637       O641   2.019   1_655  S
Co638       O772   1.943       .  S
Co638      O1083   1.939   1_545  S
Co638       O938   2.051   1_545  S
Co639       O785   1.951   1_455  S
Co639       O641   2.017   1_556  S
Co640       O774   2.077       .  S
Co640      O1103   2.028   1_645  S
O641      Co1102   2.028   1_454  S
C642        C735   1.488       .  S
C643        C747   1.494       .  S
C644        C723   1.483       .  S
C645        C687   1.479       .  S
O646        C654   1.264       .  A
O646       Co666   2.020       .  S
O647        C655   1.280       .  A
O647       Co667   2.034       .  S
O648        C656   1.252       .  A
O648       Co668   1.944       .  S
O649        C657   1.269       .  A
O649       Co669   1.905       .  S
O650        C656   1.276       .  A
O650       Co667   2.051       .  S
O651        C657   1.291       .  A
O651       Co666   2.085       .  S
O652        C655   1.270       .  A
O652       Co669   1.967       .  S
O653        C654   1.249       .  A
O653       Co668   1.951       .  S
C654        C726   1.483       .  S
C655        C690   1.479       .  S
C656        C750   1.494       .  S
C657        C738   1.488       .  S
O658        C671   1.270       .  A
O658       Co666   1.905       .  S
O659        C672   1.250       .  A
O659       Co667   1.939       .  S
O660        C673   1.279       .  A
O660       Co668   2.033       .  S
O661        C674   1.263       .  A
O661       Co669   2.025       .  S
O662        C674   1.245       .  A
O662       Co667   1.943       .  S
O663        C673   1.269       .  A
O663       Co666   1.969       .  S
O664        C671   1.289       .  A
O664       Co669   2.077       .  S
O665        C672   1.275       .  A
O665       Co668   2.046       .  S
Co666       O670   2.019       .  S
Co667       O670   2.011       .  S
Co668       O670   2.017       .  S
Co669       O670   2.028       .  S
C671        C714   1.480       .  S
C672        C699   1.490       .  S
C673        C759   1.493       .  S
C674        C675   1.474       .  S
C675        C676   1.412       .  A
C675        C680   1.403       .  A
C676        C677   1.398       .  A
C676        H681   1.085       .  S
C677        C678   1.403       .  A
C677        C684   1.444       .  S
C678        C679   1.412       .  A
C679        C680   1.398       .  A
C679        H682   1.085       .  S
C680        C683   1.444       .  S
C683        N685   1.157       .  T
C684        N686   1.157       .  T
C687        C688   1.398       .  A
C687        C692   1.417       .  A
C688        C689   1.402       .  A
C688        H693   1.085       .  S
C689        C690   1.417       .  A
C689        C696   1.441       .  S
C690        C691   1.398       .  A
C691        C692   1.402       .  A
C691        H694   1.085       .  S
C692        C695   1.441       .  S
C695        N697   1.157       .  T
C696        N698   1.157       .  T
C699        C700   1.414       .  A
C699        C704   1.410       .  A
C700        C701   1.400       .  A
C700        H705   1.085       .  S
C701        C702   1.410       .  A
C701        C708   1.445       .  S
C702        C703   1.414       .  A
C703        C704   1.400       .  A
C703        H706   1.085       .  S
C704        C707   1.445       .  S
C707        N709   1.157       .  T
C708        N710   1.157   1_554  T
C711        C712   1.402       .  A
C711        C716   1.416       .  A
C712        C713   1.399       .  A
C712        H717   1.085       .  S
C713        C714   1.416       .  A
C713        C720   1.444       .  S
C714        C715   1.402       .  A
C715        C716   1.399       .  A
C715        H718   1.085       .  S
C716        C719   1.444       .  S
C719        N721   1.157       .  T
C720        N722   1.157       .  T
C723        C724   1.411       .  A
C723        C728   1.411       .  A
C724        C725   1.398       .  A
C724        H729   1.085       .  S
C725        C726   1.411       .  A
C725        C732   1.445       .  S
C726        C727   1.411       .  A
C727        C728   1.398       .  A
C727        H730   1.085       .  S
C728        C731   1.445       .  S
C731        N887   1.157       .  T
C732        N734   1.157       .  T
N733        C885   1.157   1_554  T
C735        C736   1.403       .  A
C735        C740   1.419       .  A
C736        C737   1.401       .  A
C736        H741   1.085       .  S
C737        C738   1.419       .  A
C737        C744   1.444       .  S
C738        C739   1.403       .  A
C739        C740   1.401       .  A
C739        H742   1.085       .  S
C740        C743   1.444       .  S
C743        N745   1.157       .  T
C744        N746   1.157       .  T
C747        C748   1.413       .  A
C747        C752   1.412       .  A
C748        C749   1.402       .  A
C748        H753   1.085       .  S
C749        C750   1.412       .  A
C749        C756   1.444       .  S
C750        C751   1.413       .  A
C751        C752   1.402       .  A
C751        H754   1.085       .  S
C752        C755   1.444       .  S
C755        N757   1.157       .  T
C756        N758   1.157       .  T
C759        C760   1.409       .  A
C759        C764   1.414       .  A
C760        C761   1.404       .  A
C760        H765   1.084       .  S
C761        C762   1.414       .  A
C761        C768   1.445       .  S
C762        C763   1.409       .  A
C763        C764   1.404       .  A
C763        H766   1.084       .  S
C764        C767   1.445       .  S
C767        N769   1.157       .  T
C768        N770   1.157       .  T
O771        C779   1.269       .  A
O771       Co791   1.969       .  S
O772        C780   1.245       .  A
O773        C781   1.275       .  A
O774        C782   1.289       .  A
O775        C781   1.250       .  A
O775       Co946   1.939       .  S
O776        C782   1.270       .  A
O776      Co1099   1.905       .  S
O777        C780   1.263       .  A
O778        C779   1.279       .  A
O778       Co793   2.033   1_655  S
C779        C916   1.493       .  S
C780        C832   1.474       .  S
C781        C856   1.490       .  S
C782        C865   1.480       .  S
O783        C796   1.291       .  A
O783       Co945   2.085   1_556  S
O784        C797   1.276       .  A
O784      Co1100   2.051   1_556  S
O785        C798   1.249       .  A
O786        C799   1.270       .  A
O787        C799   1.280       .  A
O787       Co792   2.034   1_556  S
O788        C798   1.264       .  A
O789        C796   1.269       .  A
O789       Co794   1.905       .  S
O790        C797   1.252       .  A
Co791      O1084   1.905       .  S
Co791       O937   2.085       .  S
Co791       O795   2.019   1_655  S
Co792       O929   1.939   1_545  S
Co792      O1092   2.051   1_544  S
Co793       O795   2.017       .  S
Co794       O949   2.028   1_646  S
O795       Co948   2.028   1_455  S
C796        C889   1.488       .  S
C797        C901   1.494       .  S
C798        C877   1.483       .  S
C799        C841   1.479       .  S
O800        C808   1.264       .  A
O800       Co820   2.020       .  S
O801        C809   1.280       .  A
O801       Co821   2.034       .  S
O802        C810   1.252       .  A
O802       Co822   1.944       .  S
O803        C811   1.269       .  A
O803       Co823   1.905       .  S
O804        C810   1.276       .  A
O804       Co821   2.051       .  S
O805        C811   1.291       .  A
O805       Co820   2.085       .  S
O806        C809   1.270       .  A
O806       Co823   1.967       .  S
O807        C808   1.249       .  A
O807       Co822   1.951       .  S
C808        C880   1.483       .  S
C809        C844   1.479       .  S
C810        C904   1.494       .  S
C811        C892   1.488       .  S
O812        C825   1.270       .  A
O812       Co820   1.905       .  S
O813        C826   1.250       .  A
O813       Co821   1.939       .  S
O814        C827   1.279       .  A
O814       Co822   2.033       .  S
O815        C828   1.263       .  A
O815       Co823   2.025       .  S
O816        C828   1.245       .  A
O816       Co821   1.943       .  S
O817        C827   1.269       .  A
O817       Co820   1.969       .  S
O818        C825   1.289       .  A
O818       Co823   2.077       .  S
O819        C826   1.275       .  A
O819       Co822   2.046       .  S
Co820       O824   2.019       .  S
Co821       O824   2.011       .  S
Co822       O824   2.017       .  S
Co823       O824   2.028       .  S
C825        C868   1.480       .  S
C826        C853   1.490       .  S
C827        C913   1.493       .  S
C828        C829   1.474       .  S
C829        C830   1.412       .  A
C829        C834   1.403       .  A
C830        C831   1.398       .  A
C830        H835   1.085       .  S
C831        C832   1.403       .  A
C831        C838   1.444       .  S
C832        C833   1.412       .  A
C833        C834   1.398       .  A
C833        H836   1.085       .  S
C834        C837   1.444       .  S
C837        N839   1.157       .  T
C838        N840   1.157       .  T
C841        C842   1.398       .  A
C841        C846   1.417       .  A
C842        C843   1.402       .  A
C842        H847   1.085       .  S
C843        C844   1.417       .  A
C843        C850   1.441       .  S
C844        C845   1.398       .  A
C845        C846   1.402       .  A
C845        H848   1.085       .  S
C846        C849   1.441       .  S
C849        N851   1.157       .  T
C850        N852   1.157       .  T
C853        C854   1.414       .  A
C853        C858   1.410       .  A
C854        C855   1.400       .  A
C854        H859   1.085       .  S
C855        C856   1.410       .  A
C855        C862   1.445       .  S
C856        C857   1.414       .  A
C857        C858   1.400       .  A
C857        H860   1.085       .  S
C858        C861   1.445       .  S
C861        N863   1.157       .  T
C862        N864   1.157       .  T
C865        C866   1.402       .  A
C865        C870   1.416       .  A
C866        C867   1.399       .  A
C866        H871   1.085       .  S
C867        C868   1.416       .  A
C867        C874   1.444       .  S
C868        C869   1.402       .  A
C869        C870   1.399       .  A
C869        H872   1.085       .  S
C870        C873   1.444       .  S
C873        N875   1.157       .  T
C874        N876   1.157       .  T
C877        C878   1.411       .  A
C877        C882   1.411       .  A
C878        C879   1.398       .  A
C878        H883   1.085       .  S
C879        C880   1.411       .  A
C879        C886   1.445       .  S
C880        C881   1.411       .  A
C881        C882   1.398       .  A
C881        H884   1.085       .  S
C882        C885   1.445       .  S
C886        N888   1.157       .  T
C889        C890   1.403       .  A
C889        C894   1.419       .  A
C890        C891   1.401       .  A
C890        H895   1.085       .  S
C891        C892   1.419       .  A
C891        C898   1.444       .  S
C892        C893   1.403       .  A
C893        C894   1.401       .  A
C893        H896   1.085       .  S
C894        C897   1.444       .  S
C897        N899   1.157       .  T
C898        N900   1.157       .  T
C901        C902   1.413       .  A
C901        C906   1.412       .  A
C902        C903   1.402       .  A
C902        H907   1.085       .  S
C903        C904   1.412       .  A
C903        C910   1.444       .  S
C904        C905   1.413       .  A
C905        C906   1.402       .  A
C905        H908   1.085       .  S
C906        C909   1.444       .  S
C909        N911   1.157   1_556  T
C910        N912   1.157       .  T
C913        C914   1.409       .  A
C913        C918   1.414       .  A
C914        C915   1.404       .  A
C914        H919   1.084       .  S
C915        C916   1.414       .  A
C915        C922   1.445       .  S
C916        C917   1.409       .  A
C917        C918   1.404       .  A
C917        H920   1.084       .  S
C918        C921   1.445       .  S
C921        N923   1.157       .  T
C922        N924   1.157       .  T
O925        C933   1.269       .  A
O925       Co945   1.969   1_565  S
O926        C934   1.245       .  A
O926      Co1100   1.943       .  S
O927        C935   1.275       .  A
O928        C936   1.289       .  A
O928      Co1102   2.077   1_554  S
O929        C935   1.250       .  A
O930        C936   1.270       .  A
O931        C934   1.263       .  A
O932        C933   1.279       .  A
O932       Co947   2.033   1_654  S
C933       C1070   1.493       .  S
C934        C986   1.474       .  S
C935       C1010   1.490       .  S
C936       C1019   1.480       .  S
O937        C950   1.291       .  A
O938        C951   1.276       .  A
O939        C952   1.249       .  A
O939      Co1101   1.951   1_655  S
O940        C953   1.270       .  A
O941        C953   1.280       .  A
O941       Co946   2.034       .  S
O942        C952   1.264       .  A
O942      Co1099   2.020   1_565  S
O943        C950   1.269       .  A
O943       Co948   1.905       .  S
O944        C951   1.252       .  A
Co945      O1096   2.020   1_544  S
Co945       O949   2.019   1_645  S
Co946      O1080   1.943       .  S
Co947      O1093   1.951   1_455  S
Co947       O949   2.017   1_556  S
Co948      O1082   2.077       .  S
C950       C1043   1.488       .  S
C951       C1055   1.494       .  S
C952       C1031   1.483       .  S
C953        C995   1.479       .  S
O954        C962   1.264       .  A
O954       Co974   2.020       .  S
O955        C963   1.280       .  A
O955       Co975   2.034       .  S
O956        C964   1.252       .  A
O956       Co976   1.944       .  S
O957        C965   1.269       .  A
O957       Co977   1.905       .  S
O958        C964   1.276       .  A
O958       Co975   2.051       .  S
O959        C965   1.291       .  A
O959       Co974   2.085       .  S
O960        C963   1.270       .  A
O960       Co977   1.967       .  S
O961        C962   1.249       .  A
O961       Co976   1.951       .  S
C962       C1034   1.483       .  S
C963        C998   1.479       .  S
C964       C1058   1.494       .  S
C965       C1046   1.488       .  S
O966        C979   1.270       .  A
O966       Co974   1.905       .  S
O967        C980   1.250       .  A
O967       Co975   1.939       .  S
O968        C981   1.279       .  A
O968       Co976   2.033       .  S
O969        C982   1.263       .  A
O969       Co977   2.025       .  S
O970        C982   1.245       .  A
O970       Co975   1.943       .  S
O971        C981   1.269       .  A
O971       Co974   1.969       .  S
O972        C979   1.289       .  A
O972       Co977   2.077       .  S
O973        C980   1.275       .  A
O973       Co976   2.046       .  S
Co974       O978   2.019       .  S
Co975       O978   2.011       .  S
Co976       O978   2.017       .  S
Co977       O978   2.028       .  S
C979       C1022   1.480       .  S
C980       C1007   1.490       .  S
C981       C1067   1.493       .  S
C982        C983   1.474       .  S
C983        C984   1.412       .  A
C983        C988   1.403       .  A
C984        C985   1.398       .  A
C984        H989   1.085       .  S
C985        C986   1.403       .  A
C985        C992   1.444       .  S
C986        C987   1.412       .  A
C987        C988   1.398       .  A
C987        H990   1.085       .  S
C988        C991   1.444       .  S
C991        N993   1.157       .  T
C992        N994   1.157       .  T
C995        C996   1.398       .  A
C995       C1000   1.417       .  A
C996        C997   1.402       .  A
C996       H1001   1.085       .  S
C997        C998   1.417       .  A
C997       C1004   1.441       .  S
C998        C999   1.398       .  A
C999       C1000   1.402       .  A
C999       H1002   1.085       .  S
C1000      C1003   1.441       .  S
C1003      N1005   1.157       .  T
C1004      N1006   1.157       .  T
C1007      C1008   1.414       .  A
C1007      C1012   1.410       .  A
C1008      C1009   1.400       .  A
C1008      H1013   1.085       .  S
C1009      C1010   1.410       .  A
C1009      C1016   1.445       .  S
C1010      C1011   1.414       .  A
C1011      C1012   1.400       .  A
C1011      H1014   1.085       .  S
C1012      C1015   1.445       .  S
C1015      N1017   1.157       .  T
C1016      N1018   1.157   1_554  T
C1019      C1020   1.402       .  A
C1019      C1024   1.416       .  A
C1020      C1021   1.399       .  A
C1020      H1025   1.085       .  S
C1021      C1022   1.416       .  A
C1021      C1028   1.444       .  S
C1022      C1023   1.402       .  A
C1023      C1024   1.399       .  A
C1023      H1026   1.085       .  S
C1024      C1027   1.444       .  S
C1027      N1029   1.157       .  T
C1028      N1030   1.157       .  T
C1031      C1032   1.411       .  A
C1031      C1036   1.411       .  A
C1032      C1033   1.398       .  A
C1032      H1037   1.085       .  S
C1033      C1034   1.411       .  A
C1033      C1040   1.445       .  S
C1034      C1035   1.411       .  A
C1035      C1036   1.398       .  A
C1035      H1038   1.085       .  S
C1036      C1039   1.445       .  S
C1039      N1195   1.157       .  T
C1040      N1042   1.157       .  T
N1041      C1193   1.157   1_554  T
C1043      C1044   1.403       .  A
C1043      C1048   1.419       .  A
C1044      C1045   1.401       .  A
C1044      H1049   1.085       .  S
C1045      C1046   1.419       .  A
C1045      C1052   1.444       .  S
C1046      C1047   1.403       .  A
C1047      C1048   1.401       .  A
C1047      H1050   1.085       .  S
C1048      C1051   1.444       .  S
C1051      N1053   1.157       .  T
C1052      N1054   1.157       .  T
C1055      C1056   1.413       .  A
C1055      C1060   1.412       .  A
C1056      C1057   1.402       .  A
C1056      H1061   1.085       .  S
C1057      C1058   1.412       .  A
C1057      C1064   1.444       .  S
C1058      C1059   1.413       .  A
C1059      C1060   1.402       .  A
C1059      H1062   1.085       .  S
C1060      C1063   1.444       .  S
C1063      N1065   1.157       .  T
C1064      N1066   1.157       .  T
C1067      C1068   1.409       .  A
C1067      C1072   1.414       .  A
C1068      C1069   1.404       .  A
C1068      H1073   1.084       .  S
C1069      C1070   1.414       .  A
C1069      C1076   1.445       .  S
C1070      C1071   1.409       .  A
C1071      C1072   1.404       .  A
C1071      H1074   1.084       .  S
C1072      C1075   1.445       .  S
C1075      N1077   1.157       .  T
C1076      N1078   1.157       .  T
O1079      C1087   1.269       .  A
O1079     Co1099   1.969   1_565  S
O1080      C1088   1.245       .  A
O1081      C1089   1.275       .  A
O1082      C1090   1.289       .  A
O1083      C1089   1.250       .  A
O1084      C1090   1.270       .  A
O1085      C1088   1.263       .  A
O1086      C1087   1.279       .  A
O1086     Co1101   2.033   1_655  S
C1087      C1224   1.493       .  S
C1088      C1140   1.474       .  S
C1089      C1164   1.490       .  S
C1090      C1173   1.480       .  S
O1091      C1104   1.291       .  A
O1092      C1105   1.276       .  A
O1093      C1106   1.249       .  A
O1094      C1107   1.270       .  A
O1095      C1107   1.280       .  A
O1095     Co1100   2.034   1_556  S
O1096      C1106   1.264       .  A
O1097      C1104   1.269       .  A
O1097     Co1102   1.905       .  S
O1098      C1105   1.252       .  A
Co1099     O1103   2.019   1_645  S
Co1101     O1103   2.017       .  S
C1104      C1197   1.488       .  S
C1105      C1209   1.494       .  S
C1106      C1185   1.483       .  S
C1107      C1149   1.479       .  S
O1108      C1116   1.264       .  A
O1108     Co1128   2.020       .  S
O1109      C1117   1.280       .  A
O1109     Co1129   2.034       .  S
O1110      C1118   1.252       .  A
O1110     Co1130   1.944       .  S
O1111      C1119   1.269       .  A
O1111     Co1131   1.905       .  S
O1112      C1118   1.276       .  A
O1112     Co1129   2.051       .  S
O1113      C1119   1.291       .  A
O1113     Co1128   2.085       .  S
O1114      C1117   1.270       .  A
O1114     Co1131   1.967       .  S
O1115      C1116   1.249       .  A
O1115     Co1130   1.951       .  S
C1116      C1188   1.483       .  S
C1117      C1152   1.479       .  S
C1118      C1212   1.494       .  S
C1119      C1200   1.488       .  S
O1120      C1133   1.270       .  A
O1120     Co1128   1.905       .  S
O1121      C1134   1.250       .  A
O1121     Co1129   1.939       .  S
O1122      C1135   1.279       .  A
O1122     Co1130   2.033       .  S
O1123      C1136   1.263       .  A
O1123     Co1131   2.025       .  S
O1124      C1136   1.245       .  A
O1124     Co1129   1.943       .  S
O1125      C1135   1.269       .  A
O1125     Co1128   1.969       .  S
O1126      C1133   1.289       .  A
O1126     Co1131   2.077       .  S
O1127      C1134   1.275       .  A
O1127     Co1130   2.046       .  S
Co1128     O1132   2.019       .  S
Co1129     O1132   2.011       .  S
Co1130     O1132   2.017       .  S
Co1131     O1132   2.028       .  S
C1133      C1176   1.480       .  S
C1134      C1161   1.490       .  S
C1135      C1221   1.493       .  S
C1136      C1137   1.474       .  S
C1137      C1138   1.412       .  A
C1137      C1142   1.403       .  A
C1138      C1139   1.398       .  A
C1138      H1143   1.085       .  S
C1139      C1140   1.403       .  A
C1139      C1146   1.444       .  S
C1140      C1141   1.412       .  A
C1141      C1142   1.398       .  A
C1141      H1144   1.085       .  S
C1142      C1145   1.444       .  S
C1145      N1147   1.157       .  T
C1146      N1148   1.157       .  T
C1149      C1150   1.398       .  A
C1149      C1154   1.417       .  A
C1150      C1151   1.402       .  A
C1150      H1155   1.085       .  S
C1151      C1152   1.417       .  A
C1151      C1158   1.441       .  S
C1152      C1153   1.398       .  A
C1153      C1154   1.402       .  A
C1153      H1156   1.085       .  S
C1154      C1157   1.441       .  S
C1157      N1159   1.157       .  T
C1158      N1160   1.157       .  T
C1161      C1162   1.414       .  A
C1161      C1166   1.410       .  A
C1162      C1163   1.400       .  A
C1162      H1167   1.085       .  S
C1163      C1164   1.410       .  A
C1163      C1170   1.445       .  S
C1164      C1165   1.414       .  A
C1165      C1166   1.400       .  A
C1165      H1168   1.085       .  S
C1166      C1169   1.445       .  S
C1169      N1171   1.157       .  T
C1170      N1172   1.157       .  T
C1173      C1174   1.402       .  A
C1173      C1178   1.416       .  A
C1174      C1175   1.399       .  A
C1174      H1179   1.085       .  S
C1175      C1176   1.416       .  A
C1175      C1182   1.444       .  S
C1176      C1177   1.402       .  A
C1177      C1178   1.399       .  A
C1177      H1180   1.085       .  S
C1178      C1181   1.444       .  S
C1181      N1183   1.157       .  T
C1182      N1184   1.157       .  T
C1185      C1186   1.411       .  A
C1185      C1190   1.411       .  A
C1186      C1187   1.398       .  A
C1186      H1191   1.085       .  S
C1187      C1188   1.411       .  A
C1187      C1194   1.445       .  S
C1188      C1189   1.411       .  A
C1189      C1190   1.398       .  A
C1189      H1192   1.085       .  S
C1190      C1193   1.445       .  S
C1194      N1196   1.157       .  T
C1197      C1198   1.403       .  A
C1197      C1202   1.419       .  A
C1198      C1199   1.401       .  A
C1198      H1203   1.085       .  S
C1199      C1200   1.419       .  A
C1199      C1206   1.444       .  S
C1200      C1201   1.403       .  A
C1201      C1202   1.401       .  A
C1201      H1204   1.085       .  S
C1202      C1205   1.444       .  S
C1205      N1207   1.157       .  T
C1206      N1208   1.157       .  T
C1209      C1210   1.413       .  A
C1209      C1214   1.412       .  A
C1210      C1211   1.402       .  A
C1210      H1215   1.085       .  S
C1211      C1212   1.412       .  A
C1211      C1218   1.444       .  S
C1212      C1213   1.413       .  A
C1213      C1214   1.402       .  A
C1213      H1216   1.085       .  S
C1214      C1217   1.444       .  S
C1217      N1219   1.157   1_556  T
C1218      N1220   1.157       .  T
C1221      C1222   1.409       .  A
C1221      C1226   1.414       .  A
C1222      C1223   1.404       .  A
C1222      H1227   1.084       .  S
C1223      C1224   1.414       .  A
C1223      C1230   1.445       .  S
C1224      C1225   1.409       .  A
C1225      C1226   1.404       .  A
C1225      H1228   1.084       .  S
C1226      C1229   1.445       .  S
C1229      N1231   1.157       .  T
C1230      N1232   1.157       .  T
