geometry optimzed in LAMMPS
_audit_creation_date              2020-11-30 
_audit_creation_method            'lammps2cif' 
_symmetry_space_group_name_H-M    'P1' 
_symmetry_Int_Tables_number       1 
_symmetry_cell_setting            triclinic 
loop_ 
_symmetry_equiv_pos_as_xyz 
  x,y,z 
_cell_length_a                    23.99114151 
_cell_length_b                    23.993929333947072 
_cell_length_c                    23.965483781830542 
_cell_angle_alpha                 89.93651353135401 
_cell_angle_beta                  90.06863742066206 
_cell_angle_gamma                 90.10184253902946 
loop_ 
_atom_site_label 
_atom_site_type_symbol 
_atom_site_fract_x 
_atom_site_fract_y 
_atom_site_fract_z 
_atom_site_charge 
O1          O  0.15701459  0.79778890  0.52477155    -0.77500
C2          C  0.13654936  0.67891565  0.39961755     0.83600
O3          O  0.20241498  0.60238749  0.56137829    -0.78600
O4          O  0.31246113  0.67981579  0.38581807    -0.80100
O5          O  0.33210446  0.81562521  0.48272884    -0.79900
O6          O  0.22998003  0.81644117  0.58001986    -0.78500
Zn7        Zn  0.17429412  0.71876806  0.51336894     1.55700
O8          O  0.28211754  0.80715351  0.40390804    -0.79900
Cd9        Cd  0.29156548  0.76673007  0.54178225     1.59700
Cd10       Cd  0.26655319  0.63646003  0.51051415     1.59600
O11         O  0.34958382  0.72246883  0.59533324    -0.79900
O12         O  0.24893935  0.71347852  0.49677575    -1.90400
Cd13       Cd  0.25138253  0.72886433  0.41692666     1.59900
O14         O  0.33316999  0.63694266  0.56357520    -0.79900
O15         O  0.17772826  0.70419061  0.37692775    -0.78500
C16         C  0.16916319  0.62940787  0.59377758     0.84000
C17         C  0.17968396  0.82585754  0.56382950     0.83700
O18         O  0.13048223  0.68024953  0.45249869    -0.77500
C19         C  0.32146423  0.82946432  0.43208226     0.84500
O20         O  0.15962646  0.68072921  0.58533974    -0.77600
C21         C  0.36039768  0.66987406  0.59535623     0.84600
C22         C  0.32101176  0.62830520  0.39442762     0.85000
O23         O  0.29494174  0.60206773  0.43360426    -0.80000
O24         O  0.86681961  0.68009647  0.95216276    -0.77500
C25         C  0.82216492  0.82688400  0.06421458     0.83600
O26         O  0.79514580  0.59928443  0.06043156    -0.78600
O27         O  0.65306630  0.72145051  0.09735922    -0.80100
O28         O  0.71770196  0.80801417  0.91054876    -0.79900
O29         O  0.81780484  0.70269805  0.87724806    -0.78500
Zn30       Zn  0.82355332  0.71829718  0.01322354     1.55700
O31         O  0.66602558  0.81734565  0.98789655    -0.79900
Cd32       Cd  0.74445365  0.72756414  0.91862057     1.59700
Cd33       Cd  0.73052921  0.63494682  0.01071211     1.59600
O34         O  0.68141011  0.67835423  0.88887679    -0.79900
O35         O  0.74888489  0.71273986  0.99766156    -1.90400
Cd36       Cd  0.70907728  0.76725439  0.04406866     1.59900
O37         O  0.69872628  0.59997186  0.93574775    -0.79900
O38         O  0.77201954  0.81775130  0.08104820    -0.78500
C39         C  0.82866296  0.62688325  0.09220724     0.84000
C40         C  0.85982791  0.67831191  0.89941862     0.83700
O41         O  0.84404293  0.79723959  0.02599741    -0.77500
C42         C  0.67836807  0.83142157  0.93786190     0.84500
O43         O  0.83635287  0.67864603  0.08410572    -0.77600
C44         C  0.67317943  0.62647584  0.89654421     0.84600
C45         C  0.64014985  0.66926274  0.09612512     0.85000
O46         O  0.66420960  0.63552239  0.06298961    -0.80000
O47         O  0.17683903  0.54952021  0.13055460    -0.77500
C48         C  0.32068169  0.43342810  0.17930490     0.83600
O49         O  0.09636538  0.44044239  0.20272019    -0.78600
O50         O  0.21782621  0.40715179  0.35013710    -0.80100
O51         O  0.30630801  0.59300517  0.27555131    -0.79900
O52         O  0.19936994  0.62447170  0.17938247    -0.78500
Zn53       Zn  0.21421466  0.48749997  0.17477917     1.55700
O54         O  0.31376949  0.51638281  0.32880727    -0.79900
Cd55       Cd  0.22533791  0.58301724  0.25178819     1.59700
Cd56       Cd  0.13188361  0.49141427  0.26650789     1.59600
O57         O  0.17848936  0.61306090  0.31599168    -0.79900
O58         O  0.20933475  0.50363894  0.24887282    -1.90400
Cd59       Cd  0.26279249  0.45765776  0.29050209     1.59900
O60         O  0.09946489  0.56961891  0.29380790    -0.79900
O61         O  0.31121979  0.41661954  0.22935064    -0.78500
C62         C  0.12392560  0.40804244  0.16993272     0.84000
C63         C  0.17506671  0.60233460  0.13737867     0.83700
O64         O  0.29257027  0.47283801  0.15729162    -0.77500
C65         C  0.32855312  0.56615565  0.31578314     0.84500
O66         O  0.17554107  0.41621824  0.16211874    -0.77600
C67         C  0.12615969  0.60709628  0.32189972     0.84600
C68         C  0.16523581  0.40775412  0.36106639     0.85000
O69         O  0.13227065  0.43918814  0.33354987    -0.80000
O70         O  0.54623010  0.12983918  0.17754100    -0.77500
C71         C  0.43934118  0.18194235  0.32509662     0.83600
O72         O  0.43301652  0.20984284  0.10158403    -0.78600
O73         O  0.40095879  0.34841388  0.22080422    -0.80100
O74         O  0.59175770  0.28167602  0.30409376    -0.79900
O75         O  0.62119412  0.17977321  0.19805135    -0.78500
Zn76       Zn  0.48633399  0.17540450  0.21591440     1.55700
O77         O  0.51567498  0.33538979  0.31221291    -0.79900
Cd78       Cd  0.58134848  0.25374100  0.22391503     1.59700
Cd79       Cd  0.48652348  0.27217125  0.13368398     1.59600
O80         O  0.61155105  0.31662225  0.17512765    -0.79900
O81         O  0.50198683  0.25098230  0.20951269    -1.90400
Cd82       Cd  0.45785406  0.29324615  0.26376473     1.59900
O83         O  0.56096343  0.30427285  0.09793042    -0.79900
O84         O  0.42306389  0.23198861  0.31512810    -0.78500
C85         C  0.40325229  0.17333743  0.12777877     0.84000
C86         C  0.59885210  0.13724493  0.17456026     0.83700
O87         O  0.47696631  0.15848982  0.29596123    -0.77500
C88         C  0.56538310  0.32219054  0.32657784     0.84500
O89         O  0.41429128  0.16042334  0.17804028    -0.77600
C90         C  0.60179467  0.32763565  0.12412483     0.84600
C91         C  0.40105078  0.36146746  0.16866748     0.85000
O92         O  0.43456707  0.33832436  0.13479093    -0.80000
O93         O  0.37230257  0.18351410  0.45227902    -0.77500
C94         C  0.32109386  0.32777982  0.56385081     0.83600
O95         O  0.29474245  0.10761576  0.56612196    -0.78600
O96         O  0.15126951  0.22310377  0.59698044    -0.80100
O97         O  0.21626734  0.30926169  0.40685867    -0.79900
O98         O  0.32334871  0.20530334  0.37693164    -0.78500
Zn99       Zn  0.32749978  0.22132352  0.51330547     1.55700
O100        O  0.16688726  0.31757409  0.48596007    -0.79900
Cd101      Cd  0.24934119  0.23085527  0.41765189     1.59700
Cd102      Cd  0.23326270  0.13916890  0.51168214     1.59600
O103        O  0.18864059  0.18058612  0.38694947    -0.79900
O104        O  0.25200155  0.21555454  0.49744115    -1.90400
Cd105      Cd  0.20888665  0.26801641  0.54320679     1.59900
O106        O  0.20696740  0.10315740  0.43485680    -0.79900
O107        O  0.27113966  0.31759918  0.58071269    -0.78500
C108        C  0.33084804  0.13362637  0.59642499     0.84000
C109        C  0.36519519  0.18082886  0.39950742     0.83700
O110        O  0.34338971  0.30055486  0.52411847    -0.77500
C111        C  0.17726342  0.33179300  0.43549244     0.84500
O112        O  0.34378195  0.18380019  0.58553973    -0.77600
C113        C  0.18064521  0.12891537  0.39558009     0.84600
C114        C  0.13950726  0.17068414  0.59560005     0.85000
O115        O  0.16590401  0.13844214  0.56277995    -0.80000
O116        O  0.79562292  0.52868470  0.15375991    -0.77500
C117        C  0.67544256  0.40408893  0.13495905     0.83600
O118        O  0.60136009  0.56777068  0.20690751    -0.78600
O119        O  0.68106738  0.39211939  0.31520627    -0.80100
O120        O  0.81501594  0.48799665  0.33009855    -0.79900
O121        O  0.81638673  0.58393543  0.22590191    -0.78500
Zn122      Zn  0.71702551  0.51696237  0.17328935     1.55700
O123        O  0.80756375  0.41217694  0.27571681    -0.79900
Cd124      Cd  0.76663796  0.54720226  0.28969233     1.59700
Cd125      Cd  0.63629642  0.51577094  0.26868026     1.59600
O126        O  0.72331651  0.60043179  0.34964197    -0.79900
O127        O  0.71245357  0.50165524  0.24831787    -1.90400
Cd128      Cd  0.72711789  0.42211049  0.25044122     1.59900
O129        O  0.63739589  0.56891831  0.33483365    -0.79900
O130        O  0.69924054  0.38169921  0.17729725    -0.78500
C131        C  0.62808772  0.59812140  0.17153407     0.84000
C132        C  0.82505403  0.56715068  0.17555508     0.83700
O133        O  0.67838488  0.45679003  0.12782036    -0.77500
C134        C  0.82905735  0.43814575  0.31704778     0.84500
O135        O  0.67906647  0.58849075  0.16124904    -0.77600
C136        C  0.67087362  0.60032354  0.36167036     0.84600
C137        C  0.62923279  0.39959931  0.32273874     0.85000
O138        O  0.60293352  0.43809361  0.29577120    -0.80000
O139        O  0.02717179  0.34676522  0.20553848    -0.77500
C140        C  0.90197277  0.36392756  0.32460740     0.83600
O141        O  0.06283386  0.29792191  0.40398881    -0.78600
O142        O  0.88953680  0.18646718  0.32434756    -0.80100
O143        O  0.98622547  0.17031536  0.18595561    -0.79900
O144        O  0.08129112  0.27453417  0.18355807    -0.78500
Zn145      Zn  0.01537222  0.32639328  0.28501278     1.55700
O146        O  0.90955076  0.22270643  0.19595882    -0.79900
Cd147      Cd  0.04464135  0.21179491  0.23479228     1.59700
Cd148      Cd  0.01451513  0.23254718  0.36805307     1.59600
O149        O  0.09767866  0.15409070  0.27930663    -0.79900
O150        O  0.99992500  0.25173055  0.29048446    -1.90400
Cd151      Cd  0.92060547  0.24883633  0.27583368     1.59900
O152        O  0.06906079  0.16795825  0.36705560    -0.79900
O153        O  0.88005948  0.32210969  0.29980936    -0.78500
C154        C  0.09416683  0.33158778  0.37612844     0.84000
C155        C  0.06455829  0.32479249  0.17490819     0.83700
O156        O  0.95478735  0.37054727  0.32393113    -0.77500
C157        C  0.93594679  0.18277345  0.17284855     0.84500
O158        O  0.08653127  0.33842410  0.32412005    -0.77600
C159        C  0.09938112  0.14233987  0.33186381     0.84600
C160        C  0.89863578  0.17613894  0.37558315     0.85000
O161        O  0.93945628  0.19937418  0.40196173    -0.80000
O162        O  0.82304770  0.04687871  0.37141573    -0.77500
C163        C  0.67538528  0.93859689  0.32449835     0.83600
O164        O  0.89866353  0.93734974  0.29264270    -0.78600
O165        O  0.77947829  0.90230666  0.15245019    -0.80100
O166        O  0.69180883  0.08850292  0.22150012    -0.79900
O167        O  0.80041953  0.12189241  0.32246505    -0.78500
Zn168      Zn  0.78342329  0.98747457  0.32623550     1.55700
O169        O  0.68616204  0.01317985  0.16635038    -0.79900
Cd170      Cd  0.77257516  0.08175897  0.24847782     1.59700
Cd171      Cd  0.86428279  0.99024094  0.23130097     1.59600
O172        O  0.81932358  0.11211844  0.18401346    -0.79900
O173        O  0.78796319  0.00296973  0.25118780    -1.90400
Cd174      Cd  0.73475223  0.95634585  0.20999063     1.59900
O175        O  0.89793007  0.06799270  0.20537982    -0.79900
O176        O  0.68438223  0.92183051  0.27413498    -0.78500
C177        C  0.87164907  0.90623041  0.32717036     0.84000
C178        C  0.82515830  0.09960774  0.36446299     0.83700
O179        O  0.70498677  0.97654220  0.34687954    -0.77500
C180        C  0.67093877  0.06250097  0.17968081     0.84500
O181        O  0.82056331  0.91552521  0.33709755    -0.77600
C182        C  0.87147564  0.10564673  0.17748796     0.84600
C183        C  0.83141289  0.90525941  0.13881510     0.85000
O184        O  0.86372294  0.93926178  0.16384597    -0.80000
O185        O  0.65827350  0.70613889  0.47679765    -0.77500
C186        C  0.63751682  0.82728411  0.60038238     0.83600
O187        O  0.70340795  0.90418748  0.43779534    -0.78600
O188        O  0.81239237  0.82998430  0.61336569    -0.80100
O189        O  0.83275546  0.69004638  0.51677809    -0.79900
O190        O  0.73071495  0.68675713  0.42170626    -0.78500
Zn191      Zn  0.67466148  0.78664356  0.48689024     1.55700
O192        O  0.78407381  0.70111677  0.59595932    -0.79900
Cd193      Cd  0.79127859  0.73874506  0.45854827     1.59700
Cd194      Cd  0.76838980  0.87019366  0.48767753     1.59600
O195        O  0.84715607  0.78260327  0.40329777    -0.79900
O196        O  0.74953191  0.79324678  0.50295858    -1.90400
Cd197      Cd  0.75250637  0.77901759  0.58283437     1.59900
O198        O  0.83474536  0.86915308  0.43495275    -0.79900
O199        O  0.67887096  0.80232511  0.62296556    -0.78500
C200        C  0.66891300  0.87722053  0.40648033     0.84000
C201        C  0.68095729  0.67672420  0.43876085     0.83700
O202        O  0.63096854  0.82542326  0.54759295    -0.77500
C203        C  0.82212807  0.67704967  0.56758283     0.84500
O204        O  0.65907381  0.82584876  0.41532083    -0.77600
C205        C  0.85924975  0.83493618  0.40261880     0.84600
C206        C  0.82369947  0.88063636  0.60262474     0.85000
O207        O  0.80059472  0.90647087  0.56152323    -0.80000
C208        C  0.90198068  0.86190442  0.36248775    -0.01500
C209        C  0.85950041  0.13584006  0.40600768    -0.01500
C210        C  0.86614293  0.90998305  0.63991937    -0.01500
C211        C  0.13861512  0.09843776  0.35765049    -0.01500
C212        C  0.09522387  0.14125284  0.63351537    -0.01500
C213        C  0.14197559  0.86397167  0.59632173    -0.01500
O214        O  0.05571258  0.04224008  0.37390305    -0.77500
C215        C  0.94426620  0.89382789  0.39795845     0.83600
O216        O  0.89800313  0.09549799  0.49341010    -0.78600
O217        O  0.92883909  0.91598761  0.56482900    -0.80100
O218        O  0.12733575  0.94388662  0.53504152    -0.79900
O219        O  0.11737232  0.04896522  0.44221932    -0.78500
Zn220      Zn  0.98962073  0.01199630  0.41758431     1.55700
O221        O  0.05585177  0.88794194  0.55006850    -0.79900
Cd222      Cd  0.08120916  0.01153036  0.50782925     1.59700
Cd223      Cd  0.95347893  0.05040551  0.54632732     1.59600
O224        O  0.08581551  0.06995309  0.56691611    -0.79900
O225        O  0.00158077  0.00091076  0.49523255    -1.90400
Cd226      Cd  0.98991793  0.92125210  0.50901504     1.59900
O227        O  0.00522349  0.10735278  0.59259808    -0.79900
O228        O  0.96215516  0.87313020  0.44332362    -0.78500
C229        C  0.89772735  0.09766191  0.43985690     0.84000
C230        C  0.10242343  0.05946939  0.39258993     0.83700
O231        O  0.95512642  0.94428053  0.38515779    -0.77500
C232        C  0.10690926  0.90025290  0.55716101     0.84500
O233        O  0.93127982  0.06875659  0.41086699    -0.77600
C234        C  0.05856997  0.10539801  0.59520997     0.84600
C235        C  0.90306111  0.94465397  0.60087404     0.85000
O236        O  0.90826612  0.99788096  0.60290145    -0.80000
O237        O  0.63248345  0.32610263  0.45341219    -0.77500
C238        C  0.67847596  0.17814657  0.56449837     0.83600
O239        O  0.70377148  0.40492019  0.55948888    -0.78600
O240        O  0.84981884  0.28408373  0.59709069    -0.80100
O241        O  0.77957687  0.19398154  0.41284223    -0.79900
O242        O  0.68068886  0.30207232  0.37865624    -0.78500
Zn243      Zn  0.67609775  0.28665215  0.51408672     1.55700
O244        O  0.83458013  0.18828655  0.48829782    -0.79900
Cd245      Cd  0.75365745  0.27494996  0.41992320     1.59700
Cd246      Cd  0.76791825  0.36882769  0.51005933     1.59600
O247        O  0.81775868  0.32184847  0.38976779    -0.79900
O248        O  0.75052798  0.29126496  0.49866849    -1.90400
Cd249      Cd  0.79194603  0.23794768  0.54508170     1.59900
O250        O  0.79491148  0.40112103  0.43195583    -0.79900
O251        O  0.72859205  0.18746952  0.58168708    -0.78500
C252        C  0.67121430  0.37746585  0.59226818     0.84000
C253        C  0.63919452  0.32749265  0.40061557     0.83700
O254        O  0.65641846  0.20770926  0.52619542    -0.77500
C255        C  0.82087249  0.17259959  0.43909263     0.84500
O256        O  0.66415385  0.32549097  0.58525115    -0.77600
C257        C  0.82333140  0.37425547  0.39508641     0.84600
C258        C  0.86146246  0.33657876  0.59515943     0.85000
O259        O  0.83473127  0.36903644  0.56251803    -0.80000
O260        O  0.04753851  0.63029101  0.67999575    -0.77500
C261        C  0.93366809  0.68240117  0.82446265     0.83600
O262        O  0.93316234  0.70767261  0.60234327    -0.78600
O263        O  0.90341165  0.85336604  0.71995043    -0.80100
O264        O  0.08591282  0.78024428  0.80699336    -0.79900
O265        O  0.12153468  0.68338739  0.69557511    -0.78500
Zn266      Zn  0.98573074  0.67511287  0.71751247     1.55700
O267        O  0.01108859  0.83576473  0.81276711    -0.79900
Cd268      Cd  0.07863545  0.75469064  0.72583800     1.59700
Cd269      Cd  0.98610987  0.77014391  0.63463582     1.59600
O270        O  0.10730132  0.82008569  0.68056514    -0.79900
O271        O  0.99949853  0.75068040  0.71080714    -1.90400
Cd272      Cd  0.95446253  0.79388203  0.76378331     1.59900
O273        O  0.06444016  0.79644090  0.60172084    -0.79900
O274        O  0.91676927  0.73223968  0.81389162    -0.78500
C275        C  0.90372011  0.67116211  0.62874813     0.84000
C276        C  0.09971577  0.63952288  0.67413394     0.83700
O277        O  0.97319819  0.65979119  0.79711495    -0.77500
C278        C  0.06003555  0.82179479  0.82826692     0.84500
O279        O  0.91475560  0.65852198  0.67900521    -0.77600
C280        C  0.10204425  0.82474476  0.62809492     0.84600
C281        C  0.90388730  0.86495608  0.66749259     0.85000
O282        O  0.93442336  0.83725954  0.63409622    -0.80000
C283        C  0.13551375  0.59866048  0.63871876    -0.01500
C284        C  0.13678948  0.36940421  0.40534064    -0.01500
C285        C  0.85989752  0.63680095  0.59731525    -0.01500
C286        C  0.86452350  0.40535370  0.35677333    -0.01500
C287        C  0.90519923  0.36576141  0.63365172    -0.01500
C288        C  0.09498571  0.64548391  0.36311517    -0.01500
O289        O  0.03673114  0.62827741  0.44503889    -0.77500
C290        C  0.89269607  0.60138216  0.55590752     0.83600
O291        O  0.09614104  0.50871468  0.60417762    -0.78600
O292        O  0.91485769  0.43736498  0.56832645    -0.80100
O293        O  0.94288255  0.46811014  0.37240570    -0.79900
O294        O  0.04983671  0.55906468  0.38595164    -0.78500
Zn295      Zn  0.00983016  0.58307965  0.51168471     1.55700
O296        O  0.88806104  0.44969210  0.44369457    -0.79900
Cd297      Cd  0.00976075  0.49443300  0.42008974     1.59700
Cd298      Cd  0.04907732  0.45599495  0.54893258     1.59600
O299        O  0.06517487  0.43434504  0.41479572    -0.79900
O300        O  0.99974131  0.50621037  0.49954002    -1.90400
Cd301      Cd  0.92025451  0.49277114  0.50812419     1.59900
O302        O  0.10392745  0.41005693  0.49552841    -0.79900
O303        O  0.87135357  0.55831933  0.53378957    -0.78500
C304        C  0.09661818  0.56224502  0.60362332     0.84000
C305        C  0.05743034  0.60939830  0.39991389     0.83700
O306        O  0.94364233  0.61334349  0.54767498    -0.77500
C307        C  0.90032575  0.44391582  0.39262997     0.84500
O308        O  0.06610921  0.58955389  0.56994441    -0.77600
C309        C  0.10076810  0.40663157  0.44216078     0.84600
C310        C  0.94218633  0.40227622  0.59667874     0.85000
O311        O  0.99563091  0.40027013  0.59435098    -0.80000
C312        C  0.64079852  0.36805835  0.09354812    -0.01500
C313        C  0.59754073  0.64185375  0.13584163    -0.01500
C314        C  0.40748492  0.36125544  0.86574144    -0.01500
C315        C  0.36057115  0.63856636  0.90207165    -0.01500
C316        C  0.63262208  0.59555839  0.85781469    -0.01500
C317        C  0.36119674  0.40409296  0.14118299    -0.01500
O318        O  0.44243224  0.61746443  0.95631156    -0.77500
C319        C  0.55549831  0.60932500  0.10104593     0.83600
O320        O  0.59342526  0.50809029  0.89800052    -0.78600
O321        O  0.57090885  0.43670621  0.09016257    -0.80100
O322        O  0.37945925  0.46348232  0.06238996    -0.79900
O323        O  0.37320606  0.55641861  0.95853362    -0.78500
Zn324      Zn  0.50975235  0.58281960  0.98829501     1.55700
O325        O  0.44581313  0.45716941  0.12620567    -0.79900
Cd326      Cd  0.41727962  0.49211699  0.99212843     1.59700
Cd327      Cd  0.54656306  0.45598035  0.95343018     1.59600
O328        O  0.40966699  0.43129622  0.93457816    -0.79900
O329        O  0.49758635  0.50558668  0.00227813    -1.90400
Cd330      Cd  0.50959535  0.49328530  0.08243798     1.59900
O331        O  0.49343192  0.40196901  0.90671011    -0.79900
O332        O  0.53767950  0.56314640  0.12018506    -0.78500
C333        C  0.59466858  0.56157594  0.89637657     0.84000
C334        C  0.39301644  0.60297016  0.94325164     0.83700
O335        O  0.54471722  0.62457136  0.05140282    -0.77500
C336        C  0.39673951  0.44641228  0.10964723     0.84500
O337        O  0.56492029  0.59041404  0.92907363    -0.77600
C338        C  0.43997207  0.39974894  0.90476202     0.84600
C339        C  0.60264745  0.40684522  0.06019983     0.85000
O340        O  0.60066710  0.40863055  0.00662063    -0.80000
O341        O  0.32377705  0.45504739  0.63039726    -0.77500
C342        C  0.17699310  0.56770480  0.67522068     0.83600
O343        O  0.40362333  0.56527287  0.70357260    -0.78600
O344        O  0.28162022  0.59974916  0.84538352    -0.80100
O345        O  0.19585250  0.41147193  0.77692662    -0.79900
O346        O  0.30156295  0.38018353  0.67966410    -0.78500
Zn347      Zn  0.28529585  0.51632512  0.67342532     1.55700
O348        O  0.18681157  0.48927469  0.82801079    -0.79900
Cd349      Cd  0.27658595  0.42146427  0.75230703     1.59700
Cd350      Cd  0.36863130  0.51466721  0.76781102     1.59600
O351        O  0.32516439  0.39173210  0.81586664    -0.79900
O352        O  0.29127391  0.50072948  0.74814679    -1.90400
Cd353      Cd  0.23697290  0.54680445  0.78769816     1.59900
O354        O  0.40335438  0.43964678  0.80007534    -0.79900
O355        O  0.18671153  0.58399919  0.72546709    -0.78500
C356        C  0.37573119  0.59664550  0.66990639     0.84000
C357        C  0.32576500  0.40233548  0.63760678     0.83700
O358        O  0.20632066  0.52976451  0.65245924    -0.77500
C359        C  0.17272503  0.43913322  0.81601690     0.84500
O360        O  0.32428879  0.58752938  0.66146874    -0.77600
C361        C  0.37682475  0.39995561  0.82494819     0.84600
C362        C  0.33376708  0.59916978  0.85858847     0.85000
O363        O  0.36793254  0.56669424  0.83433476    -0.80000
C364        C  0.64266567  0.63848399  0.40649049    -0.01500
C365        C  0.63572552  0.40710450  0.63666116    -0.01500
C366        C  0.40471938  0.64120597  0.63381470    -0.01500
C367        C  0.36325468  0.59841498  0.35649621    -0.01500
C368        C  0.59788247  0.36098650  0.36352524    -0.01500
C369        C  0.35904934  0.36558725  0.59646122    -0.01500
O370        O  0.44516942  0.39064966  0.54990839    -0.77500
C371        C  0.55945366  0.39710708  0.39993664     0.83600
O372        O  0.59696904  0.49892930  0.60503390    -0.78600
O373        O  0.56961711  0.57358921  0.41450977    -0.80100
O374        O  0.38584118  0.55068180  0.44186101    -0.79900
O375        O  0.37342496  0.44592139  0.53552640    -0.78500
Zn376      Zn  0.51035933  0.42389860  0.51110556     1.55700
O377        O  0.44565013  0.54191489  0.37248204    -0.79900
Cd378      Cd  0.42070466  0.51283441  0.50833719     1.59700
Cd379      Cd  0.55017676  0.55227071  0.54936308     1.59600
O380        O  0.41571319  0.57102881  0.56686321    -0.79900
O381        O  0.50067227  0.50148146  0.49922397    -1.90400
Cd382      Cd  0.51245056  0.51378383  0.41970387     1.59900
O383        O  0.49602920  0.60796525  0.59516820    -0.79900
O384        O  0.55177022  0.44757190  0.38595439    -0.78500
C385        C  0.59795525  0.44546296  0.60213552     0.84000
C386        C  0.39403091  0.40231157  0.55737616     0.83700
O387        O  0.53838417  0.37822832  0.44496984    -0.77500
C388        C  0.39969098  0.55996457  0.39167521     0.84500
O389        O  0.56785720  0.41983688  0.56701056    -0.77600
C390        C  0.44245144  0.60604547  0.59616426     0.84600
C391        C  0.60501855  0.60116654  0.44247550     0.85000
O392        O  0.60653312  0.59820546  0.49603994    -0.80000
O393        O  0.47319185  0.65840650  0.70363324    -0.77500
C394        C  0.59636276  0.63714963  0.82382630     0.83600
O395        O  0.43396722  0.71023040  0.90012506    -0.78600
O396        O  0.61101419  0.81652262  0.82402688    -0.80100
O397        O  0.51323416  0.83439544  0.68602294    -0.79900
O398        O  0.41777108  0.73010339  0.68305325    -0.78500
Zn399      Zn  0.48445580  0.67753852  0.78307644     1.55700
O400        O  0.58993343  0.78173429  0.69598747    -0.79900
Cd401      Cd  0.45475880  0.79271980  0.73425002     1.59700
Cd402      Cd  0.48513504  0.77312091  0.86604869     1.59600
O403        O  0.40155200  0.85074791  0.77837378    -0.79900
O404        O  0.50019248  0.75237881  0.78939632    -1.90400
Cd405      Cd  0.57955126  0.75403828  0.77555468     1.59900
O406        O  0.43175878  0.83811566  0.86565380    -0.79900
O407        O  0.61890671  0.67936543  0.79999777    -0.78500
C408        C  0.40366130  0.67551031  0.87244216     0.84000
C409        C  0.43491001  0.68009412  0.67387631     0.83700
O410        O  0.54355505  0.63070944  0.82176825    -0.77500
C411        C  0.56356912  0.82207482  0.67321557     0.84500
O412        O  0.41290924  0.66658251  0.82104903    -0.77600
C413        C  0.40070613  0.86318953  0.83076294     0.84600
C414        C  0.60090700  0.82846339  0.87468627     0.85000
O415        O  0.55959047  0.80603744  0.90087593    -0.80000
O416        O  0.20711441  0.97243111  0.15459799    -0.77500
C417        C  0.32548146  0.10253326  0.13720481     0.83600
O418        O  0.40405115  0.94031451  0.20300737    -0.78600
O419        O  0.32312061  0.11313214  0.31634231    -0.80100
O420        O  0.18755130  0.01655619  0.32895935    -0.79900
O421        O  0.18749734  0.91844161  0.22804651    -0.78500
Zn422      Zn  0.28546698  0.98775100  0.17376480     1.55700
O423        O  0.19553117  0.09378721  0.27663769    -0.79900
Cd424      Cd  0.23723123  0.95811189  0.28907772     1.59700
Cd425      Cd  0.36846267  0.99056971  0.26732496     1.59600
O426        O  0.28240622  0.90585575  0.34660157    -0.79900
O427        O  0.29110595  0.00385283  0.24824542    -1.90400
Cd428      Cd  0.27613731  0.08326324  0.25210693     1.59900
O429        O  0.36871944  0.93852030  0.33384194    -0.79900
O430        O  0.30311383  0.12478535  0.18012136    -0.78500
C431        C  0.37644299  0.90843987  0.16953207     0.84000
C432        C  0.17824880  0.93409206  0.17755281     0.83700
O433        O  0.32218424  0.04991201  0.12965955    -0.77500
C434        C  0.17328802  0.06661613  0.31668690     0.84500
O435        O  0.32492370  0.91692766  0.16124720    -0.77600
C436        C  0.33475940  0.90622640  0.35880715     0.84600
C437        C  0.37487656  0.10554611  0.32470115     0.85000
O438        O  0.40150118  0.06609097  0.29969307    -0.80000
O439        O  0.12732887  0.82305655  0.95348367    -0.77500
C440        C  0.17955304  0.67739888  0.06350537     0.83600
O441        O  0.20562109  0.89846851  0.06547420    -0.78600
O442        O  0.35009306  0.78187107  0.09620861    -0.80100
O443        O  0.28054767  0.69789211  0.90395939    -0.79900
O444        O  0.17604879  0.80198680  0.87795815    -0.78500
Zn445      Zn  0.17297269  0.78459183  0.01364704     1.55700
O446        O  0.33116694  0.68958195  0.98250207    -0.79900
Cd447      Cd  0.24990598  0.77609826  0.91727257     1.59700
Cd448      Cd  0.26734068  0.86672474  0.01144606     1.59600
O449        O  0.31114860  0.82528815  0.88615733    -0.79900
O450        O  0.24816922  0.79051472  0.99729138    -1.90400
Cd451      Cd  0.29140965  0.73759047  0.04230766     1.59900
O452        O  0.29396887  0.90253058  0.93449785    -0.79900
O453        O  0.22969620  0.68731470  0.08004797    -0.78500
C454        C  0.16996067  0.87222973  0.09612180     0.84000
C455        C  0.13422683  0.82601603  0.90072921     0.91700
O456        O  0.15693662  0.70519775  0.02422924    -0.77500
C457        C  0.32020419  0.67585611  0.93190729     0.84500
O458        O  0.15772160  0.82177787  0.08586997    -0.77600
C459        C  0.31981249  0.87675469  0.89500358     0.84600
C460        C  0.36143942  0.83444126  0.09545731     0.85000
O461        O  0.33454274  0.86685683  0.06306050    -0.80000
C462        C  0.36176331  0.90709104  0.85686415    -0.01500
C463        C  0.64010024  0.86876456  0.90506428    -0.01500
C464        C  0.40574024  0.86404652  0.13352771    -0.01500
C465        C  0.35887281  0.13929348  0.09606610    -0.01500
C466        C  0.59953758  0.14263946  0.86158878    -0.01500
C467        C  0.63504017  0.09583123  0.14042164    -0.01500
O468        O  0.44463497  0.96356649  0.87285366    -0.77500
C469        C  0.55735608  0.11105955  0.89729771     0.83600
O470        O  0.60206456  0.90948147  0.99246344    -0.78600
O471        O  0.56833422  0.09273409  0.06846222    -0.80100
O472        O  0.37274172  0.05795609  0.03657839    -0.79900
O473        O  0.38370987  0.95578621  0.94148923    -0.78500
Zn474      Zn  0.51080694  0.99356879  0.91682051     1.55700
O475        O  0.44162133  0.11867899  0.04355384    -0.79900
Cd476      Cd  0.41980098  0.99263072  0.00713262     1.59700
Cd477      Cd  0.54755462  0.95543526  0.04573906     1.59600
O478        O  0.41529672  0.93424090  0.06583744    -0.79900
O479        O  0.49928750  0.00490083  0.99478017    -1.90400
Cd480      Cd  0.51019225  0.08504861  0.00853915     1.59900
O481        O  0.49604006  0.89878102  0.09343744    -0.79900
O482        O  0.54075981  0.13157261  0.94315220    -0.78500
C483        C  0.60217212  0.90722712  0.93889272     0.84000
C484        C  0.39819877  0.94590135  0.89170041     0.83700
O485        O  0.54527047  0.06104180  0.88402525    -0.77500
C486        C  0.39189777  0.10385548  0.05461808     0.84500
O487        O  0.56881513  0.93644008  0.90985160    -0.77600
C488        C  0.44259075  0.89974742  0.09516534     0.84600
C489        C  0.59681749  0.06269663  0.10148458     0.85000
O490        O  0.59400856  0.00916213  0.10035966    -0.80000
O491        O  0.97043654  0.84473928  0.29385303    -0.77500
C492        C  0.09986862  0.86293732  0.17481118     0.83600
O493        O  0.93707991  0.79852336  0.09670170    -0.78600
O494        O  0.10703901  0.68337235  0.17998464    -0.80100
O495        O  0.01182395  0.67053232  0.31292756    -0.79900
O496        O  0.91394787  0.77310422  0.31324296    -0.78500
Zn497      Zn  0.98467267  0.82713597  0.21531483     1.55700
O498        O  0.08701543  0.72586454  0.30603478    -0.79900
Cd499      Cd  0.95314372  0.71133190  0.26360415     1.59700
Cd500      Cd  0.98725088  0.73497620  0.13275904     1.59600
O501        O  0.90125614  0.65325688  0.21810271    -0.79900
O502        O  0.99930323  0.75291582  0.21001720    -1.90400
Cd503      Cd  0.07849047  0.74887083  0.22511398     1.59900
O504        O  0.93501466  0.66838028  0.13290937    -0.79900
O505        O  0.12175312  0.81969702  0.19697518    -0.78500
C506        C  0.90520431  0.83180481  0.12416335     0.84000
C507        C  0.93116968  0.82307524  0.32242548     0.83700
O508        O  0.04735177  0.87089219  0.17863414    -0.77500
C509        C  0.06145334  0.68432608  0.32745248     0.84500
O510        O  0.91392904  0.84041976  0.17568686    -0.77600
C511        C  0.90263628  0.64171530  0.16560637     0.84600
C512        C  0.10196404  0.67853487  0.12748772     0.85000
O513        O  0.06488608  0.70697616  0.10071828    -0.80000
O514        O  0.84284589  0.29901871  0.97598633    -0.77500
C515        C  0.86173741  0.17763361  0.09946957     0.83600
O516        O  0.79780853  0.10166516  0.93691598    -0.78600
O517        O  0.68398081  0.17842801  0.10941575    -0.80100
O518        O  0.66584108  0.31598504  0.01119261    -0.79900
O519        O  0.77107963  0.31797161  0.91963792    -0.78500
Zn520      Zn  0.82600144  0.21874306  0.98563425     1.55700
O521        O  0.71921098  0.30810224  0.08759699    -0.79900
Cd522      Cd  0.70960378  0.26667072  0.95543249     1.59700
Cd523      Cd  0.73270751  0.13512886  0.98713401     1.59600
O524        O  0.65497972  0.22185246  0.90062357    -0.79900
O525        O  0.75098205  0.21228845  0.00061443    -1.90400
Cd526      Cd  0.74666946  0.22756687  0.07955261     1.59900
O527        O  0.66627760  0.13579347  0.93453515    -0.79900
O528        O  0.81970136  0.20214825  0.12131293    -0.78500
C529        C  0.83212722  0.12875371  0.90544547     0.84000
C530        C  0.82063736  0.32810629  0.93735477     0.83700
O531        O  0.86905576  0.17988573  0.04680696    -0.77500
C532        C  0.67903365  0.33084104  0.06072014     0.84500
O533        O  0.84188512  0.18011394  0.91413405    -0.77600
C534        C  0.64234355  0.16968850  0.90128316     0.84600
C535        C  0.67585059  0.12657610  0.10183974     0.85000
O536        O  0.70123161  0.10011003  0.06253744    -0.80000
O537        O  0.29313233  0.03300501  0.65462732    -0.77500
C538        C  0.17527424  0.90135388  0.63728810     0.83600
O539        O  0.09624264  0.06547416  0.70345551    -0.78600
O540        O  0.17538952  0.89182009  0.81562315    -0.80100
O541        O  0.31263672  0.98894190  0.82857551    -0.79900
O542        O  0.31240419  0.08698632  0.72811298    -0.78500
Zn543      Zn  0.21456884  0.01676573  0.67351154     1.55700
O544        O  0.30406766  0.91164756  0.77661919    -0.79900
Cd545      Cd  0.26259865  0.04707820  0.78884982     1.59700
Cd546      Cd  0.13119604  0.01452990  0.76749356     1.59600
O547        O  0.21789118  0.09926878  0.84645084    -0.79900
O548        O  0.20857289  0.00115152  0.74811141    -1.90400
Cd549      Cd  0.22355317  0.92180733  0.75209111     1.59900
O550        O  0.13152638  0.06642049  0.83423351    -0.79900
O551        O  0.19900026  0.87967259  0.67981290    -0.78500
C552        C  0.12411810  0.09685634  0.66975277     0.84000
C553        C  0.32190240  0.07140849  0.67771701     0.83700
O554        O  0.17740091  0.95411412  0.62974992    -0.77500
C555        C  0.32680533  0.93893438  0.81623793     0.84500
O556        O  0.17535140  0.08750912  0.66095727    -0.77600
C557        C  0.16564717  0.09882638  0.85891146     0.84600
C558        C  0.12363497  0.89948540  0.82419450     0.85000
O559        O  0.09695778  0.93889247  0.79907406    -0.80000
C560        C  0.13890807  0.13820999  0.90212284    -0.01500
C561        C  0.13661368  0.90395992  0.14091698    -0.01500
C562        C  0.90292555  0.14405787  0.13649973    -0.01500
C563        C  0.86062416  0.86722846  0.09454107    -0.01500
C564        C  0.09300018  0.86050105  0.86471395    -0.01500
C565        C  0.86645990  0.09810568  0.86100554    -0.01500
O566        O  0.96142867  0.12659913  0.05480501    -0.77500
C567        C  0.10677475  0.10233902  0.94328854     0.83600
O568        O  0.90506774  0.00795009  0.89577232    -0.78600
O569        O  0.08919923  0.93156951  0.93195054    -0.80100
O570        O  0.05468912  0.96324176  0.12729717    -0.79900
O571        O  0.94954632  0.05783657  0.11469028    -0.78500
Zn572      Zn  0.99087846  0.08215420  0.98907281     1.55700
O573        O  0.11531126  0.95681023  0.05846170    -0.79900
Cd574      Cd  0.98889891  0.99267528  0.07978985     1.59700
Cd575      Cd  0.95115164  0.95415146  0.95095965     1.59600
O576        O  0.93098766  0.93415631  0.08376652    -0.79900
O577        O  0.00101960  0.00437819  0.00017150    -1.90400
Cd578      Cd  0.08098300  0.99105748  0.98992741     1.59900
O579        O  0.89452721  0.90669628  0.00327228    -0.79900
O580        O  0.12705007  0.05637498  0.95972958    -0.78500
C581        C  0.90502935  0.06152922  0.89625547     0.84000
C582        C  0.94106531  0.10793254  0.10017433     0.83700
O583        O  0.05702534  0.11589066  0.95519241    -0.77500
C584        C  0.10077339  0.94558515  0.10820681     0.84500
O585        O  0.93548734  0.08869868  0.93007205    -0.77600
C586        C  0.89604344  0.90508628  0.05684804     0.84600
C587        C  0.05940528  0.89881656  0.90295735     0.85000
O588        O  0.00577980  0.89990319  0.90509236    -0.80000
O589        O  0.34401195  0.20810628  0.02668260    -0.77500
C590        C  0.36598212  0.32642901  0.90126048     0.83600
O591        O  0.29230037  0.40104352  0.06486079    -0.78600
O592        O  0.18923618  0.32633089  0.88510722    -0.80100
O593        O  0.16927060  0.18895440  0.98276051    -0.79900
O594        O  0.27106458  0.18873574  0.08146180    -0.78500
Zn595      Zn  0.32547249  0.28613594  0.01375770     1.55700
O596        O  0.21821284  0.19876273  0.90333158    -0.79900
Cd597      Cd  0.20888845  0.23796872  0.04244009     1.59700
Cd598      Cd  0.23134915  0.36754579  0.01117918     1.59600
O599        O  0.15023301  0.28198656  0.09625221    -0.79900
O600        O  0.25087913  0.29117089  0.99656640    -1.90400
Cd601      Cd  0.24990774  0.27675328  0.91657744     1.59900
O602        O  0.16445536  0.36717634  0.06287967    -0.79900
O603        O  0.32460365  0.30183202  0.87799715    -0.78500
C604        C  0.32677174  0.37396048  0.09591810     0.84000
C605        C  0.32154405  0.17979476  0.06561670     0.83700
O606        O  0.37187730  0.32431877  0.95421529    -0.77500
C607        C  0.17939263  0.17585682  0.93181260     0.84500
O608        O  0.33710847  0.32314361  0.08593549    -0.77600
C609        C  0.13835273  0.33440269  0.09557240     0.84600
C610        C  0.17961101  0.37746125  0.89470949     0.85000
O611        O  0.20472660  0.40330063  0.93468212    -0.80000
O612        O  0.70602479  0.47475401  0.65378539    -0.77500
C613        C  0.82614655  0.59978375  0.63830524     0.83600
O614        O  0.90232813  0.44067556  0.70371521    -0.78600
O615        O  0.81725256  0.61027146  0.81793006    -0.80100
O616        O  0.68409700  0.51302992  0.83235470    -0.79900
O617        O  0.68416970  0.41984185  0.72596485    -0.78500
Zn618      Zn  0.78437589  0.48650543  0.67469812     1.55700
O619        O  0.69082878  0.58856444  0.77765717    -0.79900
Cd620      Cd  0.73359619  0.45583101  0.79025833     1.59700
Cd621      Cd  0.86495713  0.48907495  0.76767163     1.59600
O622        O  0.77818349  0.40341586  0.84902614    -0.79900
O623        O  0.78784500  0.50160035  0.74939238    -1.90400
Cd624      Cd  0.77209038  0.58047505  0.75271505     1.59900
O625        O  0.86406957  0.43495986  0.83300146    -0.79900
O626        O  0.80209646  0.62176702  0.68065933    -0.78500
C627        C  0.87514798  0.40833125  0.67058296     0.84000
C628        C  0.67589284  0.43680888  0.67555744     0.83700
O629        O  0.82367344  0.54717503  0.63087732    -0.77500
C630        C  0.66909224  0.56243652  0.81890978     0.84500
O631        O  0.82318944  0.41522949  0.66329967    -0.77600
C632        C  0.83076320  0.40377980  0.86035438     0.84600
C633        C  0.86957290  0.60484668  0.82350366     0.85000
O634        O  0.89619786  0.56716855  0.79582055    -0.80000
O635        O  0.95453960  0.13221788  0.82199681    -0.77500
C636        C  0.06438121  0.17984379  0.67338331     0.83600
O637        O  0.06573020  0.20999732  0.89974525    -0.78600
O638        O  0.09767169  0.35108894  0.77809969    -0.80100
O639        O  0.90632859  0.28790994  0.69619729    -0.79900
O640        O  0.87886235  0.18133649  0.80225256    -0.78500
Zn641      Zn  0.01433044  0.17767711  0.78243035     1.55700
O642        O  0.98649819  0.33493201  0.68422272    -0.79900
Cd643      Cd  0.91895288  0.25475530  0.77444316     1.59700
Cd644      Cd  0.01458835  0.27277528  0.86529730     1.59600
O645        O  0.88811922  0.31473644  0.82462321    -0.79900
O646        O  0.99874543  0.25273778  0.78826042    -1.90400
Cd647      Cd  0.04437547  0.29306159  0.73338514     1.59900
O648        O  0.94044515  0.30437825  0.90107495    -0.79900
O649        O  0.08124591  0.23003148  0.68265851    -0.78500
C650        C  0.09566905  0.17501337  0.87225854     0.84000
C651        C  0.90191173  0.13931988  0.82588114     0.83700
O652        O  0.02600546  0.15788779  0.70291240    -0.77500
C653        C  0.93529744  0.32575008  0.67193931     0.84500
O654        O  0.08597905  0.16585855  0.82093313    -0.77600
C655        C  0.89857978  0.32614665  0.87530228     0.84600
C656        C  0.09860184  0.36348401  0.83053032     0.85000
O657        O  0.06761929  0.33824912  0.86536426    -0.80000
C658        C  0.85915218  0.36611194  0.90518271    -0.01500
C659        C  0.13759021  0.40751186  0.85670322    -0.01500
C660        C  0.90114667  0.64482367  0.86285018    -0.01500
C661        C  0.09443545  0.36342006  0.13425176    -0.01500
C662        C  0.86469659  0.59753861  0.13662289    -0.01500
C663        C  0.14174179  0.63926891  0.09604366    -0.01500
O664        O  0.05563751  0.61483507  0.04894122    -0.77500
C665        C  0.94033400  0.60944822  0.89953948     0.83600
O666        O  0.90321823  0.50608350  0.10410988    -0.78600
O667        O  0.93173552  0.43181158  0.91316207    -0.80100
O668        O  0.11400338  0.45418769  0.94231500    -0.79900
O669        O  0.12695112  0.55876086  0.03566180    -0.78500
Zn670      Zn  0.98978909  0.58205493  0.01066552     1.55700
O671        O  0.05581989  0.46535442  0.87180125    -0.79900
Cd672      Cd  0.07923197  0.49223611  0.00860039     1.59700
Cd673      Cd  0.95007887  0.45316258  0.04845623     1.59600
O674        O  0.08351081  0.43397756  0.06738208    -0.79900
O675        O  0.99954443  0.50437385  0.99860618    -1.90400
Cd676      Cd  0.98838553  0.49254259  0.91882327     1.59900
O677        O  0.00320359  0.39695798  0.09509639    -0.79900
O678        O  0.94911533  0.55921054  0.88534937    -0.78500
C679        C  0.90252196  0.55958738  0.10185921     0.84000
C680        C  0.10665284  0.60272711  0.05689470     0.83700
O681        O  0.96067783  0.62826034  0.94494659    -0.77500
C682        C  0.10108730  0.44611746  0.89165382     0.84500
O683        O  0.93269552  0.58554275  0.06703895    -0.77600
C684        C  0.05672246  0.39883972  0.09653037     0.84600
C685        C  0.89647589  0.40388390  0.94105624     0.85000
O686        O  0.89452938  0.40707214  0.99458168    -0.80000
O687        O  0.54673806  0.87393248  0.32258503    -0.77500
C688        C  0.43673335  0.82582456  0.17378961     0.83600
O689        O  0.43550974  0.79577714  0.40066619    -0.78600
O690        O  0.40430777  0.65461688  0.27802457    -0.80100
O691        O  0.59794198  0.71943582  0.19866954    -0.79900
O692        O  0.62268437  0.82471375  0.30403076    -0.78500
Zn693      Zn  0.48691629  0.82838492  0.28325335     1.55700
O694        O  0.51732359  0.67312082  0.18624128    -0.79900
Cd695      Cd  0.58340397  0.75143661  0.27647421     1.59700
Cd696      Cd  0.48676670  0.73297913  0.36636669     1.59600
O697        O  0.61442323  0.69110255  0.32629387    -0.79900
O698        O  0.50318783  0.75351113  0.28950695    -1.90400
Cd699      Cd  0.45801170  0.71330559  0.23437618     1.59900
O700        O  0.56073623  0.69967551  0.40189171    -0.79900
O701        O  0.42045340  0.77546667  0.18298810    -0.78500
C702        C  0.40534808  0.83048653  0.37287462     0.84000
C703        C  0.59935152  0.86680587  0.32696257     0.83700
O704        O  0.47470317  0.84818708  0.20361496    -0.77500
C705        C  0.56876003  0.68189199  0.17447405     0.84500
O706        O  0.41515588  0.83964818  0.32158788    -0.77600
C707        C  0.60318859  0.67860170  0.37650525     0.84600
C708        C  0.40240546  0.64259664  0.33053467     0.85000
O709        O  0.43286062  0.66809697  0.36567529    -0.80000
O710        O  0.53071044  0.15996539  0.79336015    -0.77500
C711        C  0.40077436  0.14254127  0.67563077     0.83600
O712        O  0.56357238  0.20650842  0.59702385    -0.78600
O713        O  0.39398853  0.32163427  0.68058564    -0.80100
O714        O  0.49076416  0.33675369  0.81435312    -0.79900
O715        O  0.58696875  0.23178125  0.81298476    -0.78500
Zn716      Zn  0.51630254  0.17813102  0.71532776     1.55700
O717        O  0.41566972  0.28144214  0.80790297    -0.79900
Cd718      Cd  0.54774583  0.29432971  0.76420898     1.59700
Cd719      Cd  0.51325098  0.26989942  0.63328048     1.59600
O720        O  0.59946995  0.35154958  0.71812970    -0.79900
O721        O  0.50153179  0.25250697  0.71078060    -1.90400
Cd722      Cd  0.42268395  0.25666649  0.72678245     1.59900
O723        O  0.56506835  0.33671776  0.63305325    -0.79900
O724        O  0.37907091  0.18544363  0.69864013    -0.78500
C725        C  0.59555679  0.17308263  0.62434016     0.84000
C726        C  0.57013088  0.18156679  0.82174679     0.83700
O727        O  0.45336616  0.13479488  0.67876586    -0.77500
C728        C  0.44144327  0.32289906  0.82949578     0.84500
O729        O  0.58704199  0.16442153  0.67586536    -0.77600
C730        C  0.59770512  0.36318411  0.66567049     0.84600
C731        C  0.39876231  0.32624007  0.62799934     0.85000
O732        O  0.43558460  0.29765821  0.60122458    -0.80000
O733        O  0.67803832  0.95744894  0.87098679    -0.77500
C734        C  0.82576077  0.06719822  0.82387910     0.83600
O735        O  0.60263184  0.06710806  0.79212273    -0.78600
O736        O  0.72152761  0.10205525  0.65191602    -0.80100
O737        O  0.80942612  0.91482838  0.72133224    -0.79900
O738        O  0.69926220  0.88245076  0.82159479    -0.78500
Zn739      Zn  0.71809304  0.01695566  0.82585202     1.55700
O740        O  0.81635182  0.99180247  0.66838715    -0.79900
Cd741      Cd  0.72832566  0.92251091  0.74800717     1.59700
Cd742      Cd  0.63703280  0.01432255  0.73111431     1.59600
O743        O  0.68080414  0.89294278  0.68362972    -0.79900
O744        O  0.71351609  0.00148972  0.75086086    -1.90400
Cd745      Cd  0.76657858  0.04851314  0.70995317     1.59900
O746        O  0.60244197  0.93682998  0.70593213    -0.79900
O747        O  0.81632770  0.08405917  0.77363240    -0.78500
C748        C  0.62971944  0.09819903  0.82654822     0.84000
C749        C  0.67490594  0.90481164  0.86367263     0.83700
O750        O  0.79666732  0.02881103  0.84630456    -0.77500
C751        C  0.83138983  0.94216207  0.68092726     0.84500
O752        O  0.68079835  0.08881483  0.83657822    -0.77600
C753        C  0.62849689  0.89923282  0.67780560     0.84600
C754        C  0.66944616  0.09939310  0.63860553     0.85000
O755        O  0.63718657  0.06543716  0.66373075    -0.80000
C756        C  0.36386314  0.10167595  0.64142291    -0.01500
C757        C  0.59653771  0.86098909  0.63702363    -0.01500
C758        C  0.64005497  0.13770489  0.59457346    -0.01500
C759        C  0.36178110  0.86717328  0.40230414    -0.01500
C760        C  0.63464226  0.90800482  0.36188182    -0.01500
C761        C  0.40606043  0.14545641  0.36376579    -0.01500
O762        O  0.53865621  0.87910391  0.55489960    -0.77500
C763        C  0.39365504  0.90347559  0.44327617     0.83600
O764        O  0.59543857  0.99818655  0.39581001    -0.78600
O765        O  0.41066117  0.07537518  0.43241096    -0.80100
O766        O  0.44630383  0.04336813  0.62700445    -0.79900
O767        O  0.55003460  0.94737875  0.61526964    -0.78500
Zn768      Zn  0.50962729  0.92395121  0.48911952     1.55700
O769        O  0.38403801  0.04785166  0.55931572    -0.79900
Cd770      Cd  0.51140712  0.01285659  0.57968950     1.59700
Cd771      Cd  0.54870244  0.05196078  0.45041355     1.59600
O772        O  0.56980469  0.07076999  0.58353607    -0.79900
O773        O  0.49894372  0.00167076  0.50000834    -1.90400
Cd774      Cd  0.41870026  0.01491938  0.49013930     1.59900
O775        O  0.60543107  0.09923645  0.50304682    -0.79900
O776        O  0.37304543  0.94932209  0.45955516    -0.78500
C777        C  0.59591650  0.94461963  0.39679308     0.84000
C778        C  0.55859173  0.89737515  0.60060277     0.83700
O779        O  0.44356812  0.89038128  0.45512914    -0.77500
C780        C  0.39949749  0.05996632  0.60862529     0.84500
O781        O  0.56546928  0.91747185  0.43062937    -0.77600
C782        C  0.60447351  0.10015859  0.55667516     0.84600
C783        C  0.44014343  0.10775193  0.40254077     0.85000
O784        O  0.49383635  0.10624357  0.40376822    -0.80000
loop_ 
_geom_bond_atom_site_label_1 
_geom_bond_atom_site_label_2 
_geom_bond_distance 
_geom_bond_site_symmetry_2 
_ccdc_geom_bond_type 
O1           C17   1.275       .  A
O1           Zn7   1.961       .  S
C2           O18   1.276       .  A
C2           O15   1.280       .  A
C2          C288   1.549       .  S
O3           C16   1.290       .  A
O3          Cd10   2.126       .  S
O4           C22   1.270       .  A
O4          Cd13   2.025       .  S
O5           C19   1.283       .  A
O5           Cd9   2.079       .  S
O6           C17   1.287       .  A
O6           Cd9   2.111       .  S
Zn7          O18   2.021       .  S
Zn7          O20   1.982       .  S
Zn7          O12   1.840       .  S
O8           C19   1.277       .  A
O8          Cd13   2.041       .  S
Cd9          O11   2.170       .  S
Cd9          O12   1.959       .  S
Cd10         O14   2.041       .  S
Cd10         O23   2.133       .  S
Cd10         O12   1.924       .  S
O11          C21   1.289       .  A
O12         Cd13   1.949       .  S
Cd13         O15   2.094       .  S
O14          C21   1.277       .  A
C16          O20   1.269       .  A
C16         C283   1.534       .  S
C17         C213   1.506       .  S
C19         C759   1.504       .  S
C21         C366   1.566       .  S
C22          O23   1.291       .  A
C22         C367   1.541       .  S
O24          C40   1.276       .  A
O24         Zn30   2.017   1_556  S
C25          O41   1.274       .  A
C25          O38   1.288       .  A
C25         C563   1.521       .  S
O26          C39   1.289       .  A
O26         Cd33   2.134       .  S
O27          C45   1.290       .  A
O27         Cd36   2.154       .  S
O28          C42   1.280       .  A
O28         Cd32   2.044       .  S
O29          C40   1.281       .  A
O29         Cd32   2.108       .  S
Zn30         O41   1.980       .  S
Zn30         O43   1.970       .  S
Zn30         O35   1.834   1_554  S
O31          C42   1.280       .  A
O31         Cd36   2.079   1_556  S
Cd32         O34   2.045       .  S
Cd32         O35   1.930       .  S
Cd33         O37   2.124   1_554  S
Cd33         O46   2.026       .  S
Cd33         O35   1.942   1_554  S
O34          C44   1.273       .  A
O35         Cd36   1.967   1_556  S
Cd36         O38   2.128       .  S
O37          C44   1.289       .  A
C39          O43   1.270       .  A
C39         C662   1.541       .  S
C40         C660   1.550       .  S
C42         C463   1.504       .  S
C44         C316   1.535       .  S
C45          O46   1.274       .  A
C45         C313   1.543       .  S
O47          C63   1.279       .  A
O47         Zn53   2.035       .  S
C48          O64   1.276       .  A
C48          O61   1.285       .  A
C48         C317   1.510       .  S
O49          C62   1.290       .  A
O49         Cd56   2.135       .  S
O50          C68   1.289       .  A
O50         Cd59   2.161       .  S
O51          C65   1.276       .  A
O51         Cd55   2.037       .  S
O52          C63   1.278       .  A
O52         Cd55   2.094       .  S
Zn53         O64   1.959       .  S
Zn53         O66   1.968       .  S
Zn53         O58   1.822       .  S
O54          C65   1.284       .  A
O54         Cd59   2.078       .  S
Cd55         O57   2.040       .  S
Cd55         O58   1.944       .  S
Cd56         O60   2.136       .  S
Cd56         O69   2.037       .  S
Cd56         O58   1.928       .  S
O57          C67   1.271       .  A
O58         Cd59   1.964       .  S
Cd59         O61   2.116       .  S
O60          C67   1.292       .  A
C62          O66   1.268       .  A
C62         C661   1.541       .  S
C63         C663   1.551       .  S
C65         C367   1.497       .  S
C67         C288   1.546       .  S
C68          O69   1.276       .  A
C68         C284   1.561       .  S
O70          C86   1.277       .  A
O70         Zn76   2.029       .  S
C71          O87   1.274       .  A
C71          O84   1.285       .  A
C71         C761   1.503       .  S
O72          C85   1.292       .  A
O72         Cd79   2.114       .  S
O73          C91   1.288       .  A
O73         Cd82   2.162       .  S
O74          C88   1.281       .  A
O74         Cd78   2.051       .  S
O75          C86   1.282       .  A
O75         Cd78   2.111       .  S
Zn76         O87   1.973       .  S
Zn76         O89   1.984       .  S
Zn76         O81   1.857       .  S
O77          C88   1.281       .  A
O77         Cd82   2.071       .  S
Cd78         O80   2.040       .  S
Cd78         O81   1.936       .  S
Cd79         O83   2.125       .  S
Cd79         O92   2.020       .  S
Cd79         O81   1.922       .  S
O80          C90   1.272       .  A
O81         Cd82   1.962       .  S
Cd82         O84   2.090       .  S
O83          C90   1.290       .  A
C85          O89   1.271       .  A
C85         C465   1.541       .  S
C86         C467   1.555       .  S
C88         C368   1.502       .  S
C90         C312   1.533       .  S
C91          O92   1.272       .  A
C91         C317   1.547       .  S
O93         C109   1.278       .  A
O93         Zn99   2.032       .  S
C94         O110   1.274       .  A
C94         O107   1.288       .  A
C94         C369   1.503       .  S
O95         C108   1.290       .  A
O95        Cd102   2.109       .  S
O96         C114   1.289       .  A
O96        Cd105   2.175       .  S
O97         C111   1.282       .  A
O97        Cd101   2.059       .  S
O98         C109   1.283       .  A
O98        Cd101   2.119       .  S
Zn99        O110   1.956       .  S
Zn99        O112   1.989       .  S
Zn99        O104   1.855       .  S
O100        C111   1.281       .  A
O100       Cd105   2.076       .  S
Cd101       O103   2.027       .  S
Cd101       O104   1.948       .  S
Cd102       O106   2.129       .  S
Cd102       O115   2.029       .  S
Cd102       O104   1.917       .  S
O103        C113   1.271       .  A
O104       Cd105   1.967       .  S
Cd105       O107   2.109       .  S
O106        C113   1.291       .  A
C108        O112   1.270       .  A
C108        C756   1.542       .  S
C109        C761   1.556       .  S
C111        C284   1.510       .  S
C113        C211   1.541       .  S
C114        O115   1.274       .  A
C114        C212   1.566       .  S
O116        C132   1.273       .  A
O116       Zn122   1.963       .  S
C117        O133   1.278       .  A
C117        O130   1.282       .  A
C117        C312   1.556       .  S
O118        C131   1.288       .  A
O118       Cd125   2.109       .  S
O119        C137   1.270       .  A
O119       Cd128   2.036       .  S
O120        C134   1.282       .  A
O120       Cd124   2.074       .  S
O121        C132   1.290       .  A
O121       Cd124   2.130       .  S
Zn122       O133   2.032       .  S
Zn122       O135   1.965       .  S
Zn122       O127   1.838       .  S
O123        C134   1.278       .  A
O123       Cd128   2.036       .  S
Cd124       O126   2.188       .  S
Cd124       O127   1.965       .  S
Cd125       O129   2.036       .  S
Cd125       O138   2.128       .  S
Cd125       O127   1.922       .  S
O126        C136   1.291       .  A
O127       Cd128   1.942       .  S
Cd128       O130   2.112       .  S
O129        C136   1.274       .  A
C131        O135   1.270       .  A
C131        C313   1.539       .  S
C132        C662   1.518       .  S
C134        C286   1.499       .  S
C136        C364   1.567       .  S
C137        O138   1.292       .  A
C137        C368   1.542       .  S
O139        C155   1.275       .  A
O139       Zn145   1.986       .  S
C140        O156   1.277       .  A
C140        O153   1.279       .  A
C140        C286   1.548       .  S
O141        C154   1.289       .  A
O141       Cd148   2.131       .  S
O142        C160   1.271       .  A
O142       Cd151   2.035       .  S
O143        C157   1.282       .  A
O143       Cd147   2.078   1_655  S
O144        C155   1.288       .  A
O144       Cd147   2.131       .  S
Zn145       O156   2.029   1_455  S
Zn145       O158   1.968       .  S
Zn145       O150   1.833   1_455  S
O146        C157   1.277       .  A
O146       Cd151   2.032       .  S
Cd147       O149   2.162       .  S
Cd147       O150   1.965   1_455  S
Cd148       O152   2.030       .  S
Cd148       O161   2.129   1_455  S
Cd148       O150   1.946   1_455  S
O149        C159   1.291       .  A
O150       Cd151   1.936       .  S
Cd151       O153   2.092       .  S
O152        C159   1.274       .  A
C154        O158   1.270       .  A
C154        C284   1.535       .  S
C155        C661   1.523       .  S
C157        C562   1.499       .  S
C159        C211   1.542       .  S
C160        O161   1.291       .  A
C160        C209   1.531       .  S
O162        C178   1.277       .  A
O162       Zn168   2.026   1_545  S
C163        O179   1.272       .  A
C163        O176   1.291       .  A
C163        C760   1.515       .  S
O164        C177   1.289       .  A
O164       Cd171   2.109       .  S
O165        C183   1.290       .  A
O165       Cd174   2.179       .  S
O166        C180   1.282       .  A
O166       Cd170   2.049       .  S
O167        C178   1.284       .  A
O167       Cd170   2.125       .  S
Zn168       O179   1.963       .  S
Zn168       O181   1.961       .  S
Zn168       O173   1.839   1_565  S
O169        C180   1.280       .  A
O169       Cd174   2.077   1_545  S
Cd170       O172   2.043       .  S
Cd170       O173   1.928       .  S
Cd171       O175   2.124   1_565  S
Cd171       O184   2.028       .  S
Cd171       O173   1.918   1_565  S
O172        C182   1.271       .  A
O173       Cd174   1.962   1_545  S
Cd174       O176   2.123       .  S
O175        C182   1.291       .  A
C177        O181   1.269       .  A
C177        C208   1.542       .  S
C178        C209   1.557       .  S
C180        C467   1.505       .  S
C182        C562   1.543       .  S
C183        O184   1.274       .  A
C183        C563   1.567       .  S
O185        C201   1.276       .  A
O185       Zn191   1.986       .  S
C186        O202   1.275       .  A
C186        O199   1.279       .  A
C186        C757   1.549       .  S
O187        C200   1.290       .  A
O187       Cd194   2.127       .  S
O188        C206   1.271       .  A
O188       Cd197   2.022       .  S
O189        C203   1.282       .  A
O189       Cd193   2.074       .  S
O190        C201   1.285       .  A
O190       Cd193   2.107       .  S
Zn191       O202   2.023       .  S
Zn191       O204   1.991       .  S
Zn191       O196   1.843       .  S
O192        C203   1.278       .  A
O192       Cd197   2.042       .  S
Cd193       O195   2.157       .  S
Cd193       O196   1.964       .  S
Cd194       O198   2.034       .  S
Cd194       O207   2.118       .  S
Cd194       O196   1.935       .  S
O195        C205   1.288       .  A
O196       Cd197   1.945       .  S
Cd197       O199   2.090       .  S
O198        C205   1.274       .  A
C200        O204   1.272       .  A
C200        C760   1.537       .  S
C201        C364   1.510       .  S
C203        C285   1.504       .  S
C205        C208   1.547       .  S
C206        O207   1.289       .  A
C206        C210   1.526       .  S
C208        C215   1.528       .  S
C208        C507   1.512       .  S
C209        C229   1.529       .  S
C209        C255   1.507       .  S
C210        C235   1.533       .  S
C210        C281   1.557       .  S
C210        C751   1.504       .  S
C211        C230   1.525       .  S
C211        C434   1.498       .  S
C212        C234   1.534       .  S
C212        C552   1.539       .  S
C212        C636   1.524       .  S
C213        C232   1.531       .  S
C213        C280   1.543       .  S
C213        C538   1.551       .  S
O214        C230   1.275       .  A
O214       Zn220   2.033   1_455  S
C215        O231   1.275       .  A
C215        O228   1.269       .  A
O216        C229   1.284       .  A
O216       Cd223   2.133       .  S
O217        C235   1.267       .  A
O217       Cd226   1.989       .  S
O218        C232   1.271       .  A
O218       Cd222   2.070   1_565  S
O219        C230   1.267       .  A
O219       Cd222   2.007       .  S
Zn220       O231   1.981   1_545  S
Zn220       O233   1.961       .  S
Zn220       O225   1.901   1_655  S
O221        C232   1.271       .  A
O221       Cd226   2.027   1_455  S
Cd222       O224   1.996       .  S
Cd222       O225   1.950       .  S
Cd223       O227   2.152   1_655  S
Cd223       O236   2.144   1_545  S
Cd223       O225   2.062   1_655  S
O224        C234   1.271       .  A
O225       Cd226   1.959   1_445  S
Cd226       O228   2.063       .  S
O227        C234   1.282       .  A
C229        O233   1.271       .  A
C235        O236   1.284       .  A
O237        C253   1.276       .  A
O237       Zn243   2.025       .  S
C238        O254   1.275       .  A
C238        O251   1.290       .  A
C238        C758   1.519       .  S
O239        C252   1.288       .  A
O239       Cd246   2.129       .  S
O240        C258   1.290       .  A
O240       Cd249   2.168       .  S
O241        C255   1.281       .  A
O241       Cd245   2.048       .  S
O242        C253   1.282       .  A
O242       Cd245   2.113       .  S
Zn243       O254   1.973       .  S
Zn243       O256   1.966       .  S
Zn243       O248   1.827       .  S
O244        C255   1.281       .  A
O244       Cd249   2.081       .  S
Cd245       O247   2.037       .  S
Cd245       O248   1.929       .  S
Cd246       O250   2.126       .  S
Cd246       O259   2.036       .  S
Cd246       O248   1.926       .  S
O247        C257   1.271       .  A
O248       Cd249   1.965       .  S
Cd249       O251   2.131       .  S
O250        C257   1.291       .  A
C252        O256   1.270       .  A
C252        C365   1.539       .  S
C253        C368   1.555       .  S
C257        C286   1.541       .  S
C258        O259   1.276       .  A
C258        C287   1.562       .  S
O260        C276   1.279       .  A
O260       Zn266   2.043   1_455  S
C261        O277   1.276       .  A
C261        O274   1.288       .  A
C261        C660   1.505       .  S
O262        C275   1.290       .  A
O262       Cd269   2.110       .  S
O263        C281   1.287       .  A
O263       Cd272   2.154       .  S
O264        C278   1.282       .  A
O264       Cd268   2.047       .  S
O265        C276   1.282       .  A
O265       Cd268   2.127       .  S
Zn266       O277   1.966       .  S
Zn266       O279   1.976       .  S
Zn266       O271   1.849       .  S
O267        C278   1.276       .  A
O267       Cd272   2.056   1_455  S
Cd268       O270   2.026       .  S
Cd268       O271   1.934   1_455  S
Cd269       O273   2.133   1_655  S
Cd269       O282   2.034       .  S
Cd269       O271   1.911       .  S
O270        C280   1.268       .  A
O271       Cd272   1.966       .  S
Cd272       O274   2.107       .  S
O273        C280   1.293       .  A
C275        O279   1.269       .  A
C275        C285   1.533       .  S
C276        C283   1.558       .  S
C278        C564   1.499       .  S
C281        O282   1.274       .  A
C283        C304   1.529       .  S
C283        C342   1.519       .  S
C284        C309   1.526       .  S
C285        C290   1.527       .  S
C285        C613   1.551       .  S
C286        C307   1.526       .  S
C287        C310   1.529       .  S
C287        C627   1.534       .  S
C287        C653   1.511       .  S
C288        C305   1.529       .  S
C288        C509   1.498       .  S
O289        C305   1.275       .  A
O289       Zn295   2.035       .  S
C290        O306   1.271       .  A
C290        O303   1.269       .  A
O291        C304   1.284       .  A
O291       Cd298   2.150       .  S
O292        C310   1.265       .  A
O292       Cd301   1.965       .  S
O293        C307   1.270       .  A
O293       Cd297   2.067   1_655  S
O294        C305   1.266       .  A
O294       Cd297   1.998       .  S
Zn295       O306   1.950   1_455  S
Zn295       O308   1.947       .  S
Zn295       O300   1.883   1_455  S
O296        C307   1.267       .  A
O296       Cd301   2.012       .  S
Cd297       O299   1.967       .  S
Cd297       O300   1.941   1_455  S
Cd298       O302   2.144       .  S
Cd298       O311   2.147   1_455  S
Cd298       O300   2.062   1_455  S
O299        C309   1.265       .  A
O300       Cd301   1.945       .  S
Cd301       O303   2.059       .  S
O302        C309   1.284       .  A
C304        O308   1.271       .  A
C310        O311   1.284       .  A
C312        C339   1.530       .  S
C312        C532   1.505       .  S
C313        C319   1.523       .  S
C313        C705   1.504       .  S
C314        C338   1.527       .  S
C314        C361   1.536       .  S
C314        C590   1.553       .  S
C314        C728   1.507       .  S
C315        C334   1.519       .  S
C315        C362   1.546       .  S
C315        C408   1.535       .  S
C315        C457   1.502       .  S
C316        C333   1.532       .  S
C316        C394   1.554       .  S
C316        C630   1.507       .  S
C317        C336   1.525       .  S
C317        C604   1.542       .  S
O318        C334   1.274       .  A
O318       Zn324   1.972       .  S
C319        O335   1.271       .  A
C319        O332   1.272       .  A
O320        C333   1.284       .  A
O320       Cd327   2.142       .  S
O321        C339   1.270       .  A
O321       Cd330   2.012       .  S
O322        C336   1.273       .  A
O322       Cd326   2.032   1_554  S
O323        C334   1.267       .  A
O323       Cd326   2.037       .  S
Zn324       O335   1.998   1_556  S
Zn324       O337   1.950       .  S
Zn324       O329   1.905   1_556  S
O325        C336   1.268       .  A
O325       Cd330   2.047       .  S
Cd326       O328   2.017       .  S
Cd326       O329   1.968   1_556  S
Cd327       O331   2.134       .  S
Cd327       O340   2.144   1_556  S
Cd327       O329   2.044   1_556  S
O328        C338   1.271       .  A
O329       Cd330   1.964       .  S
Cd330       O332   2.020       .  S
O331        C338   1.284       .  A
C333        O337   1.267       .  A
C339        O340   1.286       .  A
O341        C357   1.277       .  A
O341       Zn347   2.022       .  S
C342        O358   1.275       .  A
C342        O355   1.287       .  A
O343        C356   1.290       .  A
O343       Cd350   2.132       .  S
O344        C362   1.290       .  A
O344       Cd353   2.161       .  S
O345        C359   1.277       .  A
O345       Cd349   2.039       .  S
O346        C357   1.279       .  A
O346       Cd349   2.093       .  S
Zn347       O358   1.986       .  S
Zn347       O360   1.967       .  S
Zn347       O352   1.835       .  S
O348        C359   1.282       .  A
O348       Cd353   2.069       .  S
Cd349       O351   2.045       .  S
Cd349       O352   1.936       .  S
Cd350       O354   2.129       .  S
Cd350       O363   2.026       .  S
Cd350       O352   1.943       .  S
O351        C361   1.273       .  A
O352       Cd353   1.957       .  S
Cd353       O355   2.115       .  S
O354        C361   1.290       .  A
C356        O360   1.269       .  A
C356        C366   1.540       .  S
C357        C369   1.547       .  S
C359        C659   1.495       .  S
C362        O363   1.273       .  A
C364        C391   1.536       .  S
C364        C707   1.530       .  S
C365        C385   1.534       .  S
C365        C628   1.517       .  S
C365        C730   1.556       .  S
C366        C390   1.534       .  S
C366        C409   1.521       .  S
C367        C388   1.525       .  S
C367        C708   1.546       .  S
C368        C371   1.539       .  S
C369        C386   1.535       .  S
C369        C731   1.540       .  S
O370        C386   1.272       .  A
O370       Zn376   1.986       .  S
C371        O387   1.275       .  A
C371        O384   1.270       .  A
O372        C385   1.285       .  A
O372       Cd379   2.162       .  S
O373        C391   1.267       .  A
O373       Cd382   1.987       .  S
O374        C388   1.268       .  A
O374       Cd378   2.015       .  S
O375        C386   1.270       .  A
O375       Cd378   2.069       .  S
Zn376       O387   2.043       .  S
Zn376       O389   1.924       .  S
Zn376       O381   1.898       .  S
O377        C388   1.272       .  A
O377       Cd382   2.074       .  S
Cd378       O380   1.984       .  S
Cd378       O381   1.951       .  S
Cd379       O383   2.166       .  S
Cd379       O392   2.161       .  S
Cd379       O381   2.082       .  S
O380        C390   1.268       .  A
O381       Cd382   1.949       .  S
Cd382       O384   2.019       .  S
O383        C390   1.286       .  A
C385        O389   1.267       .  A
C391        O392   1.286       .  A
O393        C409   1.274       .  A
O393       Zn399   1.977       .  S
C394        O410   1.277       .  A
C394        O407   1.281       .  A
O395        C408   1.289       .  A
O395       Cd402   2.108       .  S
O396        C414   1.271       .  A
O396       Cd405   2.041       .  S
O397        C411   1.281       .  A
O397       Cd401   2.074       .  S
O398        C409   1.288       .  A
O398       Cd401   2.132       .  S
Zn399       O410   2.033       .  S
Zn399       O412   1.961       .  S
Zn399       O404   1.841       .  S
O400        C411   1.279       .  A
O400       Cd405   2.034       .  S
Cd401       O403   2.168       .  S
Cd401       O404   1.967       .  S
Cd402       O406   2.020       .  S
Cd402       O415   2.122       .  S
Cd402       O404   1.938       .  S
O403        C413   1.291       .  A
O404       Cd405   1.933       .  S
Cd405       O407   2.109       .  S
O406        C413   1.271       .  A
C408        O412   1.270       .  A
C411        C757   1.499       .  S
C413        C462   1.543       .  S
C414        O415   1.290       .  A
C414        C463   1.532       .  S
O416        C432   1.275       .  A
O416       Zn422   1.969       .  S
C417        O433   1.278       .  A
C417        O430   1.278       .  A
C417        C465   1.546       .  S
O418        C431   1.291       .  A
O418       Cd425   2.138       .  S
O419        C437   1.271       .  A
O419       Cd428   2.037       .  S
O420        C434   1.283       .  A
O420       Cd424   2.077   1_545  S
O421        C432   1.286       .  A
O421       Cd424   2.113       .  S
Zn422       O433   2.028   1_565  S
Zn422       O435   1.970       .  S
Zn422       O427   1.832   1_565  S
O423        C434   1.277       .  A
O423       Cd428   2.038       .  S
Cd424       O426   2.155       .  S
Cd424       O427   1.957   1_565  S
Cd425       O429   2.024       .  S
Cd425       O438   2.124   1_565  S
Cd425       O427   1.938   1_565  S
O426        C436   1.289       .  A
O427       Cd428   1.942       .  S
Cd428       O430   2.094       .  S
O429        C436   1.273       .  A
C431        O435   1.268       .  A
C431        C464   1.542       .  S
C432        C561   1.513       .  S
C436        C759   1.544       .  S
C437        O438   1.291       .  A
C437        C761   1.533       .  S
O439        C455   1.277       .  A
O439       Zn445   2.031   1_556  S
C440        O456   1.274       .  A
C440        O453   1.288       .  A
C440        C663   1.505       .  S
O441        C454   1.291       .  A
O441       Cd448   2.112       .  S
O442        C460   1.290       .  A
O442       Cd451   2.185       .  S
O443        C457   1.278       .  A
O443       Cd447   2.042       .  S
O444        C455   1.281       .  A
O444       Cd447   2.100       .  S
Zn445       O456   1.959       .  S
Zn445       O458   1.983       .  S
Zn445       O450   1.852   1_554  S
O446        C457   1.284       .  A
O446       Cd451   2.074   1_556  S
Cd447       O449   2.025       .  S
Cd447       O450   1.950       .  S
Cd448       O452   2.132   1_554  S
Cd448       O461   2.031       .  S
Cd448       O450   1.915   1_554  S
O449        C459   1.270       .  A
O450       Cd451   1.963   1_556  S
Cd451       O453   2.112       .  S
O452        C459   1.291       .  A
C454        O458   1.269       .  A
C454        C561   1.542       .  S
C455        C564   1.552       .  S
C459        C462   1.542       .  S
C460        O461   1.274       .  A
C460        C464   1.569       .  S
C462        C484   1.525       .  S
C462        C555   1.495       .  S
C463        C483   1.531       .  S
C463        C749   1.558       .  S
C464        C488   1.536       .  S
C464        C688   1.524       .  S
C465        C486   1.531       .  S
C465        C605   1.510       .  S
C466        C469   1.526       .  S
C466        C534   1.542       .  S
C466        C726   1.510       .  S
C466        C748   1.540       .  S
C467        C489   1.530       .  S
C467        C535   1.535       .  S
O468        C484   1.274       .  A
O468       Zn474   2.035       .  S
C469        O485   1.275       .  A
C469        O482   1.269       .  A
O470        C483   1.285       .  A
O470       Cd477   2.137   1_556  S
O471        C489   1.270       .  A
O471       Cd480   2.009       .  S
O472        C486   1.269       .  A
O472       Cd476   2.059   1_545  S
O473        C484   1.266       .  A
O473       Cd476   2.001   1_556  S
Zn474       O485   1.979   1_565  S
Zn474       O487   1.963       .  S
Zn474       O479   1.909   1_565  S
O475        C486   1.272       .  A
O475       Cd480   2.018       .  S
Cd476       O478   1.987       .  S
Cd476       O479   1.952   1_564  S
Cd477       O481   2.162       .  S
Cd477       O490   2.148   1_565  S
Cd477       O479   2.059   1_564  S
O478        C488   1.268       .  A
O479       Cd480   1.968   1_556  S
Cd480       O482   2.058   1_554  S
O481        C488   1.283       .  A
C483        O487   1.271       .  A
C489        O490   1.286       .  A
O491        C507   1.275       .  A
O491       Zn497   1.960       .  S
C492        O508   1.278       .  A
C492        O505   1.278       .  A
C492        C561   1.550       .  S
O493        C506   1.288       .  A
O493       Cd500   2.126       .  S
O494        C512   1.269       .  A
O494       Cd503   2.029       .  S
O495        C509   1.283       .  A
O495       Cd499   2.082   1_455  S
O496        C507   1.287       .  A
O496       Cd499   2.123       .  S
Zn497       O508   2.033   1_655  S
Zn497       O510   1.970       .  S
Zn497       O502   1.820       .  S
O498        C509   1.277       .  A
O498       Cd503   2.026       .  S
Cd499       O501   2.162       .  S
Cd499       O502   1.967       .  S
Cd500       O504   2.029       .  S
Cd500       O513   2.126   1_655  S
Cd500       O502   1.923       .  S
O501        C511   1.289       .  A
O502       Cd503   1.936   1_655  S
Cd503       O505   2.101       .  S
O504        C511   1.275       .  A
C506        O510   1.269       .  A
C506        C563   1.540       .  S
C511        C662   1.559       .  S
C512        O513   1.292       .  A
C512        C663   1.540       .  S
O514        C530   1.275       .  A
O514       Zn520   1.981       .  S
C515        O531   1.276       .  A
C515        O528   1.281       .  A
C515        C562   1.553       .  S
O516        C529   1.291       .  A
O516       Cd523   2.132       .  S
O517        C535   1.272       .  A
O517       Cd526   2.039       .  S
O518        C532   1.279       .  A
O518       Cd522   2.074   1_554  S
O519        C530   1.285       .  A
O519       Cd522   2.103       .  S
Zn520       O531   2.020   1_556  S
Zn520       O533   1.987       .  S
Zn520       O525   1.842   1_556  S
O521        C532   1.281       .  A
O521       Cd526   2.052       .  S
Cd522       O524   2.143       .  S
Cd522       O525   1.965   1_556  S
Cd523       O527   2.031       .  S
Cd523       O536   2.131   1_556  S
Cd523       O525   1.929   1_556  S
O524        C534   1.287       .  A
O525       Cd526   1.930       .  S
Cd526       O528   2.108       .  S
O527        C534   1.275       .  A
C529        O533   1.271       .  A
C529        C565   1.536       .  S
C530        C658   1.509       .  S
C535        O536   1.290       .  A
O537        C553   1.277       .  A
O537       Zn543   1.977       .  S
C538        O554   1.279       .  A
C538        O551   1.277       .  A
O539        C552   1.290       .  A
O539       Cd546   2.133       .  S
O540        C558   1.272       .  A
O540       Cd549   2.042       .  S
O541        C555   1.283       .  A
O541       Cd545   2.072   1_565  S
O542        C553   1.285       .  A
O542       Cd545   2.112       .  S
Zn543       O554   2.037   1_545  S
Zn543       O556   1.965       .  S
Zn543       O548   1.832       .  S
O544        C555   1.275       .  A
O544       Cd549   2.033       .  S
Cd545       O547   2.153       .  S
Cd545       O548   1.960       .  S
Cd546       O550   2.028       .  S
Cd546       O559   2.129   1_545  S
Cd546       O548   1.941       .  S
O547        C557   1.289       .  A
O548       Cd549   1.940   1_545  S
Cd549       O551   2.090       .  S
O550        C557   1.274       .  A
C552        O556   1.268       .  A
C553        C756   1.515       .  S
C557        C560   1.544       .  S
C558        O559   1.291       .  A
C558        C564   1.535       .  S
C560        C567   1.519       .  S
C560        C607   1.504       .  S
C560        C650   1.539       .  S
C561        C584   1.533       .  S
C562        C582   1.534       .  S
C563        C586   1.536       .  S
C564        C587   1.530       .  S
C565        C581   1.530       .  S
C565        C651   1.551       .  S
C565        C734   1.514       .  S
O566        C582   1.273       .  A
O566       Zn572   2.032   1_554  S
C567        O583   1.270       .  A
C567        O580   1.268       .  A
O568        C581   1.286       .  A
O568       Cd575   2.153   1_545  S
O569        C587   1.269       .  A
O569       Cd578   2.003       .  S
O570        C584   1.271       .  A
O570       Cd574   2.070   1_455  S
O571        C582   1.268       .  A
O571       Cd574   2.011   1_545  S
Zn572       O583   1.957   1_655  S
Zn572       O585   1.946       .  S
Zn572       O577   1.901   1_656  S
O573        C584   1.271       .  A
O573       Cd578   2.012   1_554  S
Cd574       O576   1.976       .  S
Cd574       O577   1.950   1_665  S
Cd575       O579   2.170   1_556  S
Cd575       O588   2.152   1_655  S
Cd575       O577   2.066   1_666  S
O576        C586   1.266       .  A
O577       Cd578   1.961   1_544  S
Cd578       O580   2.048   1_565  S
O579        C586   1.285       .  A
C581        O585   1.270       .  A
C587        O588   1.288       .  A
O589        C605   1.273       .  A
O589       Zn595   1.949       .  S
C590        O606   1.278       .  A
C590        O603   1.281       .  A
O591        C604   1.288       .  A
O591       Cd598   2.105       .  S
O592        C610   1.270       .  A
O592       Cd601   2.026       .  S
O593        C607   1.285       .  A
O593       Cd597   2.081   1_556  S
O594        C605   1.288       .  A
O594       Cd597   2.120       .  S
Zn595       O606   2.028   1_554  S
Zn595       O608   1.965       .  S
Zn595       O600   1.840   1_554  S
O596        C607   1.278       .  A
O596       Cd601   2.044       .  S
Cd597       O599   2.184       .  S
Cd597       O600   1.962   1_554  S
Cd598       O602   2.029       .  S
Cd598       O611   2.121   1_554  S
Cd598       O600   1.925   1_554  S
O599        C609   1.290       .  A
O600       Cd601   1.948       .  S
Cd601       O603   2.104       .  S
O602        C609   1.274       .  A
C604        O608   1.268       .  A
C609        C661   1.569       .  S
C610        O611   1.290       .  A
C610        C659   1.538       .  S
O612        C628   1.273       .  A
O612       Zn618   1.965       .  S
C613        O629   1.276       .  A
C613        O626   1.283       .  A
O614        C627   1.287       .  A
O614       Cd621   2.124       .  S
O615        C633   1.269       .  A
O615       Cd624   2.031       .  S
O616        C630   1.280       .  A
O616       Cd620   2.079       .  S
O617        C628   1.290       .  A
O617       Cd620   2.126       .  S
Zn618       O629   2.026       .  S
Zn618       O631   1.968       .  S
Zn618       O623   1.829       .  S
O619        C630   1.281       .  A
O619       Cd624   2.049       .  S
Cd620       O622   2.170       .  S
Cd620       O623   1.963       .  S
Cd621       O625   2.033       .  S
Cd621       O634   2.127       .  S
Cd621       O623   1.925       .  S
O622        C632   1.290       .  A
O623       Cd624   1.932       .  S
Cd624       O626   2.116       .  S
O625        C632   1.275       .  A
C627        O631   1.270       .  A
C632        C658   1.560       .  S
C633        O634   1.292       .  A
C633        C660   1.543       .  S
O635        C651   1.278       .  A
O635       Zn641   2.035   1_655  S
C636        O652   1.275       .  A
C636        O649   1.289       .  A
O637        C650   1.288       .  A
O637       Cd644   2.111       .  S
O638        C656   1.292       .  A
O638       Cd647   2.172       .  S
O639        C653   1.282       .  A
O639       Cd643   2.058       .  S
O640        C651   1.282       .  A
O640       Cd643   2.113       .  S
Zn641       O652   1.985       .  S
Zn641       O654   1.971       .  S
Zn641       O646   1.846   1_455  S
O642        C653   1.282       .  A
O642       Cd647   2.079   1_655  S
Cd643       O645   2.019       .  S
Cd643       O646   1.943       .  S
Cd644       O648   2.118   1_455  S
Cd644       O657   2.020       .  S
Cd644       O646   1.945   1_455  S
O645        C655   1.270       .  A
O646       Cd647   1.965   1_655  S
Cd647       O649   2.135       .  S
O648        C655   1.289       .  A
C650        O654   1.271       .  A
C655        C658   1.528       .  S
C656        O657   1.271       .  A
C656        C659   1.543       .  S
C658        C685   1.536       .  S
C659        C682   1.527       .  S
C660        C665   1.542       .  S
C661        C684   1.535       .  S
C662        C679   1.534       .  S
C663        C680   1.535       .  S
O664        C680   1.273       .  A
O664       Zn670   1.987   1_455  S
C665        O681   1.275       .  A
C665        O678   1.271       .  A
O666        C679   1.285       .  A
O666       Cd673   2.160       .  S
O667        C685   1.269       .  A
O667       Cd676   1.995       .  S
O668        C682   1.268       .  A
O668       Cd672   2.015   1_556  S
O669        C680   1.270       .  A
O669       Cd672   2.067       .  S
Zn670       O681   2.048   1_554  S
Zn670       O683   1.927       .  S
Zn670       O675   1.901   1_554  S
O671        C682   1.272       .  A
O671       Cd676   2.079   1_455  S
Cd672       O674   1.986       .  S
Cd672       O675   1.949   1_454  S
Cd673       O677   2.166   1_655  S
Cd673       O686   2.159   1_554  S
Cd673       O675   2.083   1_554  S
O674        C684   1.269       .  A
O675       Cd676   1.951       .  S
Cd676       O678   2.023       .  S
O677        C684   1.285       .  A
C679        O683   1.268       .  A
C685        O686   1.286       .  A
O687        C703   1.278       .  A
O687       Zn693   2.034       .  S
C688        O704   1.275       .  A
C688        O701   1.288       .  A
O689        C702   1.289       .  A
O689       Cd696   2.114       .  S
O690        C708   1.292       .  A
O690       Cd699   2.175       .  S
O691        C705   1.279       .  A
O691       Cd695   2.048       .  S
O692        C703   1.280       .  A
O692       Cd695   2.100       .  S
Zn693       O704   1.988       .  S
Zn693       O706   1.972       .  S
Zn693       O698   1.845       .  S
O694        C705   1.283       .  A
O694       Cd699   2.073       .  S
Cd695       O697   2.018       .  S
Cd695       O698   1.951       .  S
Cd696       O700   2.124       .  S
Cd696       O709   2.022       .  S
Cd696       O698   1.947       .  S
O697        C707   1.269       .  A
O698       Cd699   1.961       .  S
Cd699       O701   2.133       .  S
O700        C707   1.291       .  A
C702        O706   1.271       .  A
C702        C759   1.540       .  S
C703        C760   1.546       .  S
C708        O709   1.271       .  A
O710        C726   1.274       .  A
O710       Zn716   1.950       .  S
C711        O727   1.278       .  A
C711        O724   1.280       .  A
C711        C756   1.554       .  S
O712        C725   1.289       .  A
O712       Cd719   2.130       .  S
O713        C731   1.270       .  A
O713       Cd722   2.032       .  S
O714        C728   1.281       .  A
O714       Cd718   2.088       .  S
O715        C726   1.287       .  A
O715       Cd718   2.122       .  S
Zn716       O727   2.030       .  S
Zn716       O729   1.972       .  S
Zn716       O721   1.823       .  S
O717        C728   1.280       .  A
O717       Cd722   2.041       .  S
Cd718       O720   2.154       .  S
Cd718       O721   1.968       .  S
Cd719       O723   2.027       .  S
Cd719       O732   2.123       .  S
Cd719       O721   1.924       .  S
O720        C730   1.288       .  A
O721       Cd722   1.933       .  S
Cd722       O724   2.113       .  S
O723        C730   1.275       .  A
C725        O729   1.269       .  A
C725        C758   1.541       .  S
C731        O732   1.291       .  A
O733        C749   1.277       .  A
O733       Zn739   2.031   1_565  S
C734        O750   1.274       .  A
C734        O747   1.290       .  A
O735        C748   1.288       .  A
O735       Cd742   2.106       .  S
O736        C754   1.291       .  A
O736       Cd745   2.180       .  S
O737        C751   1.282       .  A
O737       Cd741   2.057       .  S
O738        C749   1.284       .  A
O738       Cd741   2.125       .  S
Zn739       O750   1.967       .  S
Zn739       O752   1.961       .  S
Zn739       O744   1.839       .  S
O740        C751   1.280       .  A
O740       Cd745   2.069   1_565  S
Cd741       O743   2.044       .  S
Cd741       O744   1.930   1_565  S
Cd742       O746   2.123   1_545  S
Cd742       O755   2.027       .  S
Cd742       O744   1.920       .  S
O743        C753   1.272       .  A
O744       Cd745   1.962       .  S
Cd745       O747   2.116       .  S
O746        C753   1.290       .  A
C748        O752   1.269       .  A
C753        C757   1.544       .  S
C754        O755   1.274       .  A
C754        C758   1.567       .  S
C756        C780   1.535       .  S
C757        C778   1.534       .  S
C758        C782   1.537       .  S
C759        C763   1.518       .  S
C760        C777   1.530       .  S
C761        C783   1.533       .  S
O762        C778   1.273       .  A
O762       Zn768   2.031       .  S
C763        O779   1.270       .  A
C763        O776   1.269       .  A
O764        C777   1.286       .  A
O764       Cd771   2.156   1_565  S
O765        C783   1.271       .  A
O765       Cd774   2.013       .  S
O766        C780   1.270       .  A
O766       Cd770   2.067       .  S
O767        C778   1.268       .  A
O767       Cd770   2.014   1_565  S
Zn768       O779   1.954       .  S
Zn768       O781   1.947       .  S
Zn768       O773   1.901   1_565  S
O769        C780   1.272       .  A
O769       Cd774   2.018       .  S
Cd770       O772   1.974       .  S
Cd770       O773   1.951       .  S
Cd771       O775   2.173       .  S
Cd771       O784   2.163       .  S
Cd771       O773   2.071       .  S
O772        C782   1.266       .  A
O773       Cd774   1.966       .  S
Cd774       O776   2.052   1_545  S
O775        C782   1.286       .  A
C777        O781   1.270       .  A
C783        O784   1.289       .  A
