geometry optimzed in LAMMPS
_audit_creation_date              2020-11-30 
_audit_creation_method            'lammps2cif' 
_symmetry_space_group_name_H-M    'P1' 
_symmetry_Int_Tables_number       1 
_symmetry_cell_setting            triclinic 
loop_ 
_symmetry_equiv_pos_as_xyz 
  x,y,z 
_cell_length_a                    39.47108269 
_cell_length_b                    39.832603061731746 
_cell_length_c                    31.521201275132164 
_cell_angle_alpha                 90.29211086364485 
_cell_angle_beta                  90.24408499890062 
_cell_angle_gamma                 90.1223054553838 
loop_ 
_atom_site_label 
_atom_site_type_symbol 
_atom_site_fract_x 
_atom_site_fract_y 
_atom_site_fract_z 
_atom_site_charge 
C1          C  0.50842821  0.48366263  0.43206642     0.86600
C2          C  0.03562933  0.45603793  0.43058508    -0.53600
C3          C  0.03618112  0.43715616  0.39439042     0.09500
C4          C  0.00881380  0.44699841  0.36180202     0.20500
C5          C  0.01433086  0.50382218  0.39054089    -0.54400
C6          C  0.01470143  0.48489364  0.35349877     0.09600
C7          C  0.47489158  0.46529876  0.42189781    -0.53900
C8          C  0.47536447  0.44561498  0.38661064     0.10200
H9          H  0.05316517  0.45199121  0.45671937     0.14700
H10         H  0.00822571  0.43094611  0.33299400     0.00500
H11         H  0.51619815  0.53110988  0.39103839     0.15000
H12         H  0.45173731  0.46802867  0.43980019     0.14800
C13         C  0.01130333  0.54633354  0.18224452     0.86600
C14         C  0.47763034  0.56461362  0.17426791    -0.53600
C15         C  0.47686531  0.58338792  0.13829157     0.09500
C16         C  0.00931891  0.58035880  0.11111981     0.20500
C17         C  0.01549837  0.52437771  0.14167542    -0.54400
C18         C  0.01391731  0.54233461  0.10434566     0.09600
C19         C  0.03898867  0.57306495  0.17816655    -0.53900
C20         C  0.03833981  0.59069302  0.14124918     0.10200
H21         H  0.45645037  0.56362903  0.19611268     0.14700
H22         H  0.00838697  0.59501434  0.08124967     0.00500
H23         H  0.01805162  0.49730905  0.14187725     0.15000
H24         H  0.05788504  0.57739461  0.20277757     0.14800
O25         O  0.39623520  0.13718653  0.15874615    -0.57700
C26         C  0.29710182  0.12184398  0.10682140     0.74900
O27         O  0.33809650  0.22256086  0.15283461    -0.58900
C28         C  0.41541832  0.13263027  0.12708011     0.74900
C29         C  0.36296751  0.21616930  0.05062363     0.77300
Cd30       Cd  0.35272725  0.16898529  0.11837236     1.37500
O31         O  0.31922073  0.12820982  0.07921401    -0.57700
O32         O  0.38432680  0.19367874  0.05946638    -0.56500
C33         C  0.35826526  0.21878251  0.18375759     0.77300
O34         O  0.33558385  0.21521254  0.07143062    -0.58900
O35         O  0.29936010  0.13838129  0.14107382    -0.57300
O36         O  0.40419523  0.14284480  0.09181811    -0.57300
O37         O  0.37218688  0.19035618  0.18677112    -0.56500
O38         O  0.34127881  0.39783421  0.33205014    -0.57700
C39         C  0.44678369  0.42288803  0.37670291     0.74900
O40         O  0.40961522  0.32327350  0.40537273    -0.58900
C41         C  0.32374240  0.39881699  0.36567350     0.74900
C42         C  0.38708285  0.32919259  0.29814298     0.77300
Cd43       Cd  0.39205314  0.37470013  0.36759074     1.37500
O44         O  0.42017631  0.42343599  0.39867812    -0.57700
O45         O  0.37483996  0.35850400  0.29571722    -0.56500
C46         C  0.38756689  0.32595623  0.43423320     0.77300
O47         O  0.40463288  0.32272635  0.33079925    -0.58900
O48         O  0.44795426  0.40084224  0.34786687    -0.57300
O49         O  0.33924508  0.39226257  0.39975383    -0.57300
O50         O  0.37069584  0.35281519  0.43438840    -0.56500
O51         O  0.07723205  0.12319378  0.16758978    -0.57700
C52         C  0.18081974  0.10159065  0.11619754     0.74900
O53         O  0.14886599  0.18693138  0.07558444    -0.58900
C54         C  0.05867560  0.11850586  0.13522479     0.74900
C55         C  0.12760090  0.19679029  0.19510696     0.77300
Cd56       Cd  0.12510137  0.14790280  0.12801686     1.37500
O57         O  0.15528933  0.10223406  0.09188165    -0.57700
O58         O  0.11451736  0.16812885  0.20068745    -0.56500
C59         C  0.12067172  0.19710132  0.06142438     0.77300
O60         O  0.14219912  0.20124045  0.15997196    -0.58900
O61         O  0.17961958  0.12043051  0.14853150    -0.57300
O62         O  0.07276410  0.12319003  0.09968104    -0.57300
O63         O  0.09478921  0.18269240  0.07618963    -0.56500
O64         O  0.15925780  0.38304087  0.33691349    -0.57700
C65         C  0.06144329  0.41023969  0.38796259     0.74900
O66         O  0.09603530  0.30414451  0.34684351    -0.58900
C67         C  0.17893802  0.38684277  0.36836190     0.74900
C68         C  0.11541811  0.31046409  0.44568189     0.77300
Cd69       Cd  0.11243721  0.35836683  0.37785103     1.37500
O70         O  0.08483510  0.40528183  0.41463818    -0.57700
O71         O  0.14135541  0.32603177  0.43295086    -0.56500
C72         C  0.11030107  0.30864777  0.31148758     0.77300
O73         O  0.08754429  0.31903105  0.42886453    -0.58900
O74         O  0.06119286  0.39114117  0.35580287    -0.57300
O75         O  0.16658902  0.38004368  0.40433745    -0.57300
O76         O  0.12244360  0.33761618  0.30538133    -0.56500
C77         C  0.25322865  0.98285784  0.30931625     0.86600
C78         C  0.21918381  0.96560485  0.31780630    -0.53600
C79         C  0.21815266  0.94698562  0.35389863     0.09500
C80         C  0.25101579  0.94865582  0.38033072     0.20500
C81         C  0.25852773  0.00454432  0.35017188    -0.54400
C82         C  0.25719443  0.98661301  0.38772765     0.09600
C83         C  0.28021339  0.95548761  0.31315881    -0.53900
C84         C  0.27936751  0.93755072  0.34981622     0.10200
H85         H  0.19797706  0.96688595  0.29579326     0.14700
H86         H  0.24956740  0.93357012  0.40975371     0.00500
H87         H  0.26167641  0.03155062  0.34997620     0.15000
H88         H  0.29877975  0.95089128  0.28845135     0.14800
C89         C  0.24748031  0.04794734  0.05951320     0.86600
C90         C  0.27227243  0.07730093  0.06216118    -0.53600
C91         C  0.27141992  0.09531575  0.09887786     0.09500
C92         C  0.24471481  0.08247151  0.13065007     0.20500
C93         C  0.25555308  0.02712156  0.10011267    -0.54400
C94         C  0.25388930  0.04512249  0.13786986     0.09600
C95         C  0.21244079  0.06253105  0.06942604    -0.53900
C96         C  0.21103782  0.08134848  0.10562625     0.10200
H97         H  0.29003605  0.08270551  0.03681990     0.14700
H98         H  0.24288739  0.09782521  0.15995584     0.00500
H99         H  0.26091830  0.00048921  0.09949096     0.15000
H100        H  0.19082740  0.05944462  0.04830361     0.14800
O101        O  0.34542933  0.62738031  0.08246802    -0.57700
C102        C  0.44841552  0.60642082  0.12964492     0.74900
O103        O  0.40858734  0.70784106  0.08755645    -0.58900
C104        C  0.32640475  0.62646014  0.11471174     0.74900
C105        C  0.38969066  0.70320707  0.18648784     0.77300
Cd106      Cd  0.39363012  0.65426306  0.11974463     1.37500
O107        O  0.42605004  0.61171433  0.15733697    -0.57700
O108        O  0.36880217  0.67919776  0.18313649    -0.56500
C109        C  0.39092068  0.70386268  0.05439991     0.77300
O110        O  0.41414633  0.70292131  0.16068439    -0.58900
O111        O  0.44538523  0.62260081  0.09547568    -0.57300
O112        O  0.34004828  0.63480223  0.14960798    -0.57300
O113        O  0.37736226  0.67522554  0.04943537    -0.56500
O114        O  0.40400176  0.88920029  0.41086453    -0.57700
C115        C  0.30485600  0.91113526  0.35846400     0.74900
O116        O  0.33712914  0.81419233  0.32756470    -0.58900
C117        C  0.42367364  0.89136208  0.37934254     0.74900
C118        C  0.35951573  0.81274795  0.43861875     0.77300
Cd119      Cd  0.35773912  0.86121871  0.37147352     1.37500
O120        O  0.32773379  0.90461413  0.33186134    -0.57700
O121        O  0.37450476  0.84078341  0.44197031    -0.56500
C122        C  0.36365403  0.81169098  0.30539565     0.77300
O123        O  0.34072256  0.80901622  0.40637069    -0.58900
O124        O  0.30564616  0.89428580  0.39234826    -0.57300
O125        O  0.41151298  0.88238119  0.34382009    -0.57300
O126        O  0.38618512  0.83371881  0.31215026    -0.56500
O127        O  0.16782469  0.64288578  0.15170125    -0.57700
C128        C  0.06410794  0.61662776  0.13221731     0.74900
O129        O  0.09206341  0.70545712  0.17125906    -0.58900
C130        C  0.18193186  0.63398556  0.11753208     0.74900
C131        C  0.11299300  0.71379193  0.05049397     0.77300
Cd132      Cd  0.11652566  0.66644976  0.11889993     1.37500
O133        O  0.08585115  0.62477567  0.15990695    -0.57700
O134        O  0.12694240  0.68543642  0.04542040    -0.56500
C135        C  0.12007051  0.71839061  0.18236168     0.77300
O136        O  0.09789949  0.71829533  0.08525562    -0.58900
O137        O  0.06608591  0.63158201  0.09699360    -0.57300
O138        O  0.16453017  0.63790112  0.08405463    -0.57300
O139        O  0.14626492  0.70576032  0.16572045    -0.56500
O140        O  0.08661886  0.89990831  0.41016988    -0.57700
C141        C  0.18910181  0.92475557  0.36303453     0.74900
O142        O  0.15210302  0.82180976  0.40133405    -0.58900
C143        C  0.06798257  0.90280924  0.37750998     0.74900
C144        C  0.13398576  0.82893044  0.30189152     0.77300
Cd145      Cd  0.13519024  0.87583886  0.37143412     1.37500
O146        O  0.16420360  0.92286395  0.33786526    -0.57700
O147        O  0.10851380  0.84669972  0.31113362    -0.56500
C148        C  0.13521020  0.82442976  0.43509270     0.77300
O149        O  0.16060222  0.83495961  0.32301989    -0.58900
O150        O  0.18827942  0.90554668  0.39480305    -0.57300
O151        O  0.08198127  0.89682621  0.34226664    -0.57300
O152        O  0.12079602  0.85240871  0.44130621    -0.56500
C153        C  0.14572000  0.74134283  0.99359317    -0.20200
C154        C  0.11660169  0.74113787  0.01906839    -0.06800
C155        C  0.09378303  0.76847221  0.01669525     0.14100
C156        C  0.10153492  0.79557463  0.49002897    -0.20200
C157        C  0.13059937  0.79579532  0.46447009    -0.06800
C158        C  0.15293627  0.76800013  0.46590592     0.14100
C159        C  0.18502713  0.76667615  0.44011219    -0.23600
H160        H  0.16348130  0.72069710  0.99579293     0.15400
H161        H  0.08400157  0.81644253  0.48837920     0.15400
C162        C  0.06138822  0.76949084  0.04190996    -0.23500
H163        H  0.20038347  0.74409726  0.44752721     0.05600
H164        H  0.20087469  0.78912023  0.44707651     0.08900
H165        H  0.17882590  0.76559888  0.40576526     0.08900
H166        H  0.06714394  0.77156697  0.07629983     0.08800
H167        H  0.04625816  0.74646221  0.03554625     0.08800
H168        H  0.04549648  0.79145336  0.03339095     0.05600
C169        C  0.10028977  0.79565253  0.24996293    -0.20200
C170        C  0.13182037  0.80165634  0.26958872    -0.06800
C171        C  0.15937340  0.78017338  0.25986630     0.14100
C172        C  0.15439005  0.75342733  0.23142031    -0.20200
C173        C  0.12269424  0.74695956  0.21265337    -0.06800
C174        C  0.09524899  0.76863226  0.22188486     0.14100
C175        C  0.06066333  0.76402667  0.20208836    -0.23600
H176        H  0.07908441  0.81193319  0.25712021     0.15400
H177        H  0.17552034  0.73705360  0.22423064     0.15400
C178        C  0.19411023  0.78461904  0.27933409    -0.23500
H179        H  0.04277995  0.78406787  0.21196677     0.05600
H180        H  0.04960359  0.73969281  0.21208110     0.08900
H181        H  0.06264728  0.76483351  0.16697740     0.08900
H182        H  0.19275522  0.78139453  0.31424991     0.08800
H183        H  0.20424337  0.80987294  0.27161812     0.08800
H184        H  0.21245774  0.76581786  0.26716432     0.05600
C185        C  0.47564638  0.91553815  0.34769193    -0.20200
C186        C  0.45965453  0.90182070  0.38336283    -0.06800
C187        C  0.47941421  0.89426352  0.41968594     0.14100
C188        C  0.01464591  0.89834370  0.41796721    -0.20200
C189        C  0.03094354  0.90878411  0.38073819    -0.06800
C190        C  0.01093590  0.91922174  0.34580579     0.14100
C191        C  0.02642667  0.93396266  0.30638908    -0.23600
H192        H  0.46047126  0.92204478  0.32020195     0.15400
H193        H  0.02979146  0.89068241  0.44498513     0.15400
C194        C  0.46401607  0.87959891  0.45921659    -0.23500
H195        H  0.00675283  0.94356265  0.28428468     0.05600
H196        H  0.04105327  0.91465660  0.28890034     0.08900
H197        H  0.04321248  0.95531537  0.31519335     0.08900
H198        H  0.45119174  0.85547491  0.45150409     0.08800
H199        H  0.44551663  0.89751227  0.47295906     0.08800
H200        H  0.48344105  0.87444358  0.48392624     0.05600
C201        C  0.27225712  0.61237399  0.15024998    -0.20200
C202        C  0.28949570  0.61895023  0.11223479    -0.06800
C203        C  0.27031833  0.62351689  0.07459036     0.14100
C204        C  0.23483491  0.62489971  0.07701515    -0.20200
C205        C  0.21787466  0.62274445  0.11601912    -0.06800
C206        C  0.23678182  0.61426762  0.15276725     0.14100
C207        C  0.22019067  0.60787408  0.19499096    -0.23600
H208        H  0.28675121  0.60775158  0.17891177     0.15400
H209        H  0.22047542  0.63038693  0.04851485     0.15400
C210        C  0.28672756  0.62937121  0.03213653    -0.23500
H211        H  0.23868769  0.59872793  0.21892679     0.05600
H212        H  0.20020211  0.58840666  0.19129556     0.08900
H213        H  0.20907740  0.63136697  0.20776441     0.08900
H214        H  0.30313409  0.60772659  0.02385716     0.08800
H215        H  0.30195015  0.65283340  0.03311951     0.08800
H216        H  0.26768466  0.63210073  0.00634301     0.05600
C217        C  0.35439376  0.73007060  0.49900288    -0.20200
C218        C  0.38431450  0.73173416  0.02445601    -0.06800
C219        C  0.40489736  0.76086207  0.02230615     0.14100
C220        C  0.39551085  0.78697829  0.99496220    -0.20200
C221        C  0.36581068  0.78519189  0.46923778    -0.06800
C222        C  0.34487426  0.75634049  0.47200236     0.14100
C223        C  0.31211844  0.75302768  0.44748594    -0.23600
H224        H  0.33806979  0.70824414  0.50137184     0.15400
H225        H  0.41173526  0.80888568  0.99281004     0.15400
C226        C  0.43711893  0.76461604  0.04786505    -0.23500
H227        H  0.29806433  0.72984453  0.45600772     0.05600
H228        H  0.31730633  0.75168305  0.41295342     0.08900
H229        H  0.29545741  0.77475990  0.45455085     0.08900
H230        H  0.45428645  0.74318773  0.04124891     0.08800
H231        H  0.43120596  0.76572790  0.08222924     0.08800
H232        H  0.45094241  0.78806889  0.03993909     0.05600
C233        C  0.35174158  0.73425415  0.23493556    -0.20200
C234        C  0.38428707  0.73077204  0.21754321    -0.06800
C235        C  0.40973263  0.75430483  0.22885485     0.14100
C236        C  0.40178643  0.78048210  0.25700241    -0.20200
C237        C  0.36919437  0.78401916  0.27439139    -0.06800
C238        C  0.34378145  0.76038192  0.26311194     0.14100
C239        C  0.30813691  0.76225671  0.28007922    -0.23600
H240        H  0.33205475  0.71652998  0.22603742     0.15400
H241        H  0.42149842  0.79820877  0.26577971     0.15400
C242        C  0.44546590  0.75195562  0.21227760    -0.23500
H243        H  0.29161531  0.74225721  0.26653129     0.05600
H244        H  0.29663751  0.78678679  0.27177307     0.08900
H245        H  0.30837072  0.75897119  0.31502751     0.08900
H246        H  0.44561805  0.75566334  0.17740867     0.08800
H247        H  0.45637148  0.72707592  0.22018819     0.08800
H248        H  0.46224913  0.77146685  0.22645184     0.05600
C249        C  0.24005370  0.03299352  0.43732137    -0.20200
C250        C  0.25716886  0.00254303  0.43142902    -0.06800
C251        C  0.27233090  0.98759781  0.46766357     0.14100
C252        C  0.26681005  0.00110844  0.00854425    -0.20200
C253        C  0.24959334  0.03171686  0.01467586    -0.06800
C254        C  0.23828561  0.04882094  0.97725359     0.14100
C255        C  0.22465582  0.08429619  0.97662209    -0.23600
H256        H  0.22883333  0.04532172  0.41011214     0.15400
H257        H  0.27851851  0.98873516  0.03522940     0.15400
C258        C  0.29714452  0.95906943  0.46447225    -0.23500
H259        H  0.23826858  0.09914800  0.45302933     0.05600
H260        H  0.22696870  0.09811975  0.00686554     0.08900
H261        H  0.19759680  0.08390230  0.96685384     0.08900
H262        H  0.30505087  0.95415276  0.43146448     0.08800
H263        H  0.28603507  0.93602271  0.47841174     0.08800
H264        H  0.32064875  0.96564092  0.48218916     0.05600
C265        C  0.26686956  0.03174422  0.25866801    -0.20200
C266        C  0.25431747  0.99895442  0.26449665    -0.06800
C267        C  0.24495197  0.98057716  0.22697797     0.14100
C268        C  0.24442582  0.99661505  0.18726513    -0.20200
C269        C  0.25668665  0.02935756  0.18156113    -0.06800
C270        C  0.26988546  0.04625293  0.21797536     0.14100
C271        C  0.29022812  0.07811633  0.21510229    -0.23600
H272        H  0.27677310  0.04566377  0.28548189     0.15400
H273        H  0.23459740  0.98279633  0.16018965     0.15400
C274        C  0.23569444  0.94368943  0.22608365    -0.23500
H275        H  0.31381520  0.07574278  0.23419579     0.05600
H276        H  0.27530940  0.09957079  0.22757962     0.08900
H277        H  0.29859106  0.08301326  0.18234659     0.08900
H278        H  0.20880342  0.94075729  0.21622841     0.08800
H279        H  0.23942248  0.93038459  0.25630371     0.08800
H280        H  0.25188450  0.93053338  0.20256541     0.05600
C281        C  0.12849564  0.25762271  0.21136386    -0.20200
C282        C  0.12435861  0.22464877  0.22625999    -0.06800
C283        C  0.11537827  0.21964896  0.26917234     0.14100
C284        C  0.11034280  0.24766965  0.29553884    -0.20200
C285        C  0.11418652  0.28067059  0.28055632    -0.06800
C286        C  0.12356651  0.28563853  0.23773717     0.14100
C287        C  0.12787067  0.32016433  0.21903837    -0.23600
H288        H  0.13510080  0.26164161  0.17843419     0.15400
H289        H  0.10379730  0.24364230  0.32848127     0.15400
C290        C  0.11171661  0.18507436  0.28792302    -0.23500
H291        H  0.10424056  0.33485830  0.22328156     0.05600
H292        H  0.14944941  0.33333165  0.23455231     0.08900
H293        H  0.13334560  0.31906363  0.18452122     0.08900
H294        H  0.13541732  0.17061392  0.28303603     0.08800
H295        H  0.09004147  0.17169276  0.27293935     0.08800
H296        H  0.10680934  0.18611968  0.32257754     0.05600
C297        C  0.14739214  0.24557944  0.02561422    -0.20200
C298        C  0.11846802  0.22545394  0.03104004    -0.06800
C299        C  0.08828145  0.23403621  0.00915619     0.14100
C300        C  0.08834228  0.26255823  0.48238531    -0.20200
C301        C  0.11736981  0.28251868  0.47673658    -0.06800
C302        C  0.14749612  0.27397648  0.49884593     0.14100
C303        C  0.17924885  0.29433660  0.99598277    -0.23600
H304        H  0.17044797  0.23942161  0.04264268     0.15400
H305        H  0.06525192  0.26878573  0.46548411     0.15400
C306        C  0.05619125  0.21360723  0.01274097    -0.23500
H307        H  0.19958891  0.28468771  0.01708824     0.05600
H308        H  0.17447002  0.32086635  0.50524330     0.08900
H309        H  0.18944218  0.29359398  0.46281667     0.08900
H310        H  0.04653422  0.21469294  0.04572961     0.08800
H311        H  0.06117794  0.18716250  0.00341504     0.08800
H312        H  0.03579437  0.22398087  0.49186946     0.05600
C313        C  0.26909649  0.39572538  0.32704846    -0.20200
C314        C  0.28647857  0.40376237  0.36475212    -0.06800
C315        C  0.26752608  0.41135025  0.40166224     0.14100
C316        C  0.23214210  0.40818423  0.40052556    -0.20200
C317        C  0.21502840  0.39689333  0.36399262    -0.06800
C318        C  0.23374387  0.39164199  0.32622548     0.14100
C319        C  0.21730939  0.37959718  0.28560007    -0.23600
H320        H  0.28344923  0.39010537  0.29865469     0.15400
H321        H  0.21786769  0.41289547  0.42924267     0.15400
C322        C  0.28410160  0.42206259  0.44278881    -0.23500
H323        H  0.20493674  0.35489100  0.29071033     0.05600
H324        H  0.19829079  0.39818639  0.27473406     0.08900
H325        H  0.23605082  0.37634543  0.25971265     0.08900
H326        H  0.30115684  0.44377308  0.43715883     0.08800
H327        H  0.29860136  0.40093473  0.45664268     0.08800
H328        H  0.26511410  0.42984646  0.46679877     0.05600
C329        C  0.00449162  0.10331494  0.09998134    -0.20200
C330        C  0.02164125  0.11142543  0.13783066    -0.06800
C331        C  0.00222584  0.11849831  0.17461608     0.14100
C332        C  0.46675736  0.12216407  0.17097428    -0.20200
C333        C  0.45031439  0.11902776  0.13151187    -0.06800
C334        C  0.46906160  0.10713916  0.09631435     0.15300
C335        C  0.45249131  0.09888379  0.05432066    -0.23600
H336        H  0.01898636  0.09636629  0.07217130     0.15400
H337        H  0.45232867  0.13007594  0.19843690     0.15400
C338        C  0.01832618  0.12428953  0.21751423    -0.23500
H339        H  0.47048294  0.08660113  0.03216082     0.05600
H340        H  0.44340945  0.12207175  0.03867176     0.08900
H341        H  0.43099881  0.08132586  0.05930974     0.08900
H342        H  0.03446752  0.14712647  0.21696464     0.08800
H343        H  0.03375542  0.10211528  0.22640867     0.08800
H344        H  0.99903927  0.12804536  0.24265107     0.05600
C345        C  0.34450607  0.26731871  0.01254537    -0.20200
C346        C  0.36975881  0.24306229  0.01909645    -0.06800
C347        C  0.40062654  0.24589272  0.49657588     0.14100
C348        C  0.40575674  0.27353208  0.46985442    -0.20200
C349        C  0.38106784  0.29852490  0.46486215    -0.06800
C350        C  0.34987693  0.29529996  0.48667162     0.14100
C351        C  0.32136560  0.32021296  0.48168495    -0.23600
H352        H  0.32049767  0.26494935  0.02881732     0.15400
H353        H  0.42942704  0.27567995  0.45276236     0.15400
C354        C  0.42952577  0.22150207  0.00214832    -0.23500
H355        H  0.29780202  0.31163607  0.99769407     0.05600
H356        H  0.31375108  0.32189679  0.44780522     0.08900
H357        H  0.32946869  0.34524626  0.49361252     0.08900
H358        H  0.42080411  0.19611412  0.99226232     0.08800
H359        H  0.43842357  0.22107952  0.03559547     0.08800
H360        H  0.45042220  0.22642134  0.47944873     0.05600
C361        C  0.40339858  0.27633028  0.26265215    -0.20200
C362        C  0.38028410  0.30288713  0.26594493    -0.06800
C363        C  0.34980427  0.30163774  0.24210576     0.14100
C364        C  0.34325354  0.27365171  0.21610319    -0.20200
C365        C  0.36606538  0.24670871  0.21350979    -0.06800
C366        C  0.39688966  0.24836647  0.23674352     0.14100
C367        C  0.42359422  0.22137554  0.23396458    -0.23600
H368        H  0.42675146  0.27733763  0.28085370     0.15400
H369        H  0.31987364  0.27266017  0.19797669     0.15400
C370        C  0.32339573  0.32888173  0.24496325    -0.23500
H371        H  0.44649773  0.22779296  0.25296258     0.05600
H372        H  0.43170019  0.21805376  0.20051262     0.08900
H373        H  0.41348672  0.19736920  0.24643187     0.08900
H374        H  0.33407708  0.35299485  0.23359392     0.08800
H375        H  0.31478348  0.33170282  0.27828434     0.08800
H376        H  0.30077239  0.32307795  0.22514983     0.05600
C377        C  0.53668485  0.53629518  0.03102894    -0.20200
C378        C  0.01270482  0.52692946  0.06101242    -0.06800
C379        C  0.98632891  0.50512872  0.04870578     0.14100
C380        C  0.98610808  0.49182707  0.50746991    -0.20200
C381        C  0.00911171  0.50200842  0.47543869    -0.06800
C382        C  0.53552985  0.52458267  0.48877184     0.14100
C383        C  0.56365327  0.53498089  0.45934155    -0.23600
H384        H  0.55672957  0.55341709  0.04057392     0.15400
H385        H  0.96786699  0.47223736  0.50170279     0.15400
C386        C  0.95845353  0.49559762  0.07906350    -0.23500
H387        H  0.58387330  0.54904030  0.47648166     0.05600
H388        H  0.55387027  0.55202087  0.43458009     0.08900
H389        H  0.07559867  0.51279293  0.44403179     0.08900
H390        H  0.44599059  0.51850292  0.09195926     0.08800
H391        H  0.96887468  0.48075648  0.10571227     0.08800
H392        H  0.93855445  0.48006860  0.06343558     0.05600
C393        C  0.02697799  0.49820205  0.23282624    -0.20200
C394        C  0.01260403  0.53020218  0.22681311    -0.06800
C395        C  0.50238679  0.54839605  0.26442158     0.14100
C396        C  0.50188366  0.53221064  0.30385918    -0.20200
C397        C  0.01619695  0.50013670  0.30958585    -0.06800
C398        C  0.03075904  0.48401334  0.27361955     0.14100
C399        C  0.05315285  0.45358368  0.27702059    -0.23600
H400        H  0.03787784  0.48500598  0.20614787     0.15400
H401        H  0.49083790  0.54547675  0.33045473     0.15400
C402        C  0.49260335  0.58511119  0.26537949    -0.23500
H403        H  0.07677288  0.45772395  0.25871549     0.05600
H404        H  0.03987358  0.43123830  0.26382112     0.08900
H405        H  0.06141662  0.44886115  0.30997732     0.08900
H406        H  0.46518947  0.58747940  0.27254968     0.08800
H407        H  0.49827275  0.59896946  0.23604507     0.08800
H408        H  0.50720750  0.59814970  0.29079057     0.05600
C409        C  0.50819895  0.48335004  0.93196733     0.86600
C410        C  0.03530198  0.45584190  0.93057953    -0.53600
C411        C  0.03595597  0.43705693  0.89432351     0.09500
C412        C  0.00873051  0.44704325  0.86161381     0.20500
C413        C  0.01428615  0.50379319  0.89060000    -0.54400
C414        C  0.01470965  0.48496192  0.85347908     0.09600
C415        C  0.47464807  0.46507092  0.92163006    -0.53900
C416        C  0.47516135  0.44547206  0.88627218     0.10200
H417        H  0.05269997  0.45164889  0.95682051     0.14700
H418        H  0.00820102  0.43105247  0.83275007     0.00500
H419        H  0.51616097  0.53089113  0.89118293     0.15000
H420        H  0.45144735  0.46776793  0.93942458     0.14800
C421        C  0.01135573  0.54671391  0.68232861     0.86600
C422        C  0.47774655  0.56506408  0.67432627    -0.53600
C423        C  0.47706510  0.58384105  0.63833689     0.09500
C424        C  0.00946396  0.58069276  0.61114949     0.20500
C425        C  0.01554446  0.52473953  0.64177292    -0.54400
C426        C  0.01396428  0.54264345  0.60440053     0.09600
C427        C  0.03908649  0.57338603  0.67824843    -0.53900
C428        C  0.03850359  0.59098541  0.64130695     0.10200
H429        H  0.45651038  0.56406791  0.69608360     0.14700
H430        H  0.00858155  0.59533729  0.58126930     0.00500
H431        H  0.01820887  0.49768974  0.64203448     0.15000
H432        H  0.05798195  0.57768342  0.70286981     0.14800
O433        O  0.39599613  0.13704200  0.65823560    -0.57700
C434        C  0.29687891  0.12179569  0.60682688     0.74900
O435        O  0.33783962  0.22260347  0.65262844    -0.58900
C436        C  0.41513304  0.13263855  0.62648626     0.74900
C437        C  0.36280625  0.21603791  0.55045088     0.77300
Cd438      Cd  0.35248193  0.16898948  0.61823512     1.37500
O439        O  0.31903477  0.12808715  0.57923341    -0.57700
O440        O  0.38451552  0.19409746  0.56009143    -0.56500
C441        C  0.35812095  0.21891644  0.68345326     0.77300
O442        O  0.33506611  0.21456146  0.57046752    -0.58900
O443        O  0.29911087  0.13840774  0.64102927    -0.57300
O444        O  0.40381895  0.14289915  0.59129197    -0.57300
O445        O  0.37206773  0.19050667  0.68652372    -0.56500
O446        O  0.34101860  0.39721752  0.83140168    -0.57700
C447        C  0.44658733  0.42277747  0.87626804     0.74900
O448        O  0.40912147  0.32287723  0.90461031    -0.58900
C449        C  0.32351851  0.39848613  0.86503430     0.74900
C450        C  0.38711437  0.32938067  0.79753969     0.77300
Cd451      Cd  0.39189522  0.37458679  0.86718479     1.37500
O452        O  0.41985896  0.42348565  0.89800356    -0.57700
O453        O  0.37482789  0.35868178  0.79521937    -0.56500
C454        C  0.38739982  0.32578004  0.93381620     0.77300
O455        O  0.40465887  0.32282003  0.83017315    -0.58900
O456        O  0.44789091  0.40057760  0.84763793    -0.57300
O457        O  0.33906690  0.39230719  0.89919822    -0.57300
O458        O  0.37081790  0.35281731  0.93428016    -0.56500
O459        O  0.07699305  0.12365183  0.66700166    -0.57700
C460        C  0.18061350  0.10172638  0.61605149     0.74900
O461        O  0.14898856  0.18728187  0.57548950    -0.58900
C462        C  0.05847936  0.11891072  0.63461291     0.74900
C463        C  0.12750240  0.19716842  0.69452146     0.77300
Cd464      Cd  0.12498831  0.14815136  0.62755888     1.37500
O465        O  0.15518776  0.10248481  0.59157387    -0.57700
O466        O  0.11467897  0.16840782  0.70024623    -0.56500
C467        C  0.12084394  0.19724019  0.56092836     0.77300
O468        O  0.14174451  0.20172885  0.65918386    -0.58900
O469        O  0.17936442  0.12055208  0.64839261    -0.57300
O470        O  0.07261965  0.12351718  0.59908806    -0.57300
O471        O  0.09493447  0.18260738  0.57527084    -0.56500
O472        O  0.15889025  0.38298023  0.83702285    -0.57700
C473        C  0.06119677  0.41010665  0.88800138     0.74900
O474        O  0.09659348  0.30397106  0.84694773    -0.58900
C475        C  0.17873805  0.38658981  0.86833341     0.74900
C476        C  0.11507110  0.31025189  0.94594746     0.77300
Cd477      Cd  0.11224262  0.35825625  0.87808552     1.37500
O478        O  0.08473226  0.40536363  0.91454912    -0.57700
O479        O  0.14095128  0.32610706  0.93358688    -0.56500
C480        C  0.11055704  0.30876912  0.81146653     0.77300
O481        O  0.08725795  0.31857292  0.92876482    -0.58900
O482        O  0.06078744  0.39076548  0.85607887    -0.57300
O483        O  0.16656326  0.37973374  0.90438672    -0.57300
O484        O  0.12217245  0.33794575  0.80534851    -0.56500
C485        C  0.25328942  0.98269179  0.80934451     0.86600
C486        C  0.21922182  0.96550721  0.81789469    -0.53600
C487        C  0.21818045  0.94691708  0.85400957     0.09500
C488        C  0.25106458  0.94853261  0.88039808     0.20500
C489        C  0.25867538  0.00438217  0.85018027    -0.54400
C490        C  0.25733398  0.98648115  0.88775578     0.09600
C491        C  0.28022262  0.95525813  0.81317759    -0.53900
C492        C  0.27937038  0.93734352  0.84986490     0.10200
H493        H  0.19800518  0.96680484  0.79589844     0.14700
H494        H  0.24959005  0.93345886  0.90982553     0.00500
H495        H  0.26189991  0.03137707  0.84996577     0.15000
H496        H  0.29876197  0.95061180  0.78845419     0.14800
C497        C  0.24718373  0.04793088  0.55954135     0.86600
C498        C  0.27199225  0.07727077  0.56218188    -0.53600
C499        C  0.27117068  0.09527979  0.59890529     0.09500
C500        C  0.24444540  0.08246147  0.63067323     0.20500
C501        C  0.25524469  0.02709815  0.60013804    -0.54400
C502        C  0.25358981  0.04509553  0.63790723     0.09600
C503        C  0.21215857  0.06252146  0.56946324    -0.53900
C504        C  0.21077751  0.08137143  0.60562824     0.10200
H505        H  0.28974711  0.08266793  0.53682859     0.14700
H506        H  0.24260517  0.09783583  0.65995444     0.00500
H507        H  0.26060740  0.00046445  0.59948328     0.15000
H508        H  0.19053687  0.05943424  0.54835445     0.14800
O509        O  0.34558329  0.62723635  0.58163577    -0.57700
C510        C  0.44856485  0.60676952  0.62945126     0.74900
O511        O  0.40843228  0.70783446  0.58673276    -0.58900
C512        C  0.32657493  0.62614997  0.61388875     0.74900
C513        C  0.38926098  0.70334759  0.68583340     0.77300
Cd514      Cd  0.39357421  0.65435539  0.61910379     1.37500
O515        O  0.42594710  0.61185516  0.65687708    -0.57700
O516        O  0.36845920  0.67927113  0.68242341    -0.56500
C517        C  0.39069755  0.70383168  0.55363711     0.77300
O518        O  0.41371229  0.70316290  0.66002793    -0.58900
O519        O  0.44571252  0.62304055  0.59532344    -0.57300
O520        O  0.34016619  0.63452316  0.64880603    -0.57300
O521        O  0.37710850  0.67520041  0.54875337    -0.56500
O522        O  0.40400153  0.88908576  0.91079020    -0.57700
C523        C  0.30482407  0.91088821  0.85854481     0.74900
O524        O  0.33705456  0.81359505  0.82818363    -0.58900
C525        C  0.42367946  0.89117033  0.87926764     0.74900
C526        C  0.35978922  0.81259185  0.93897770     0.77300
Cd527      Cd  0.35772261  0.86094928  0.87161005     1.37500
O528        O  0.32757167  0.90418316  0.83184477    -0.57700
O529        O  0.37496507  0.84054747  0.94201605    -0.56500
C530        C  0.36333985  0.81135751  0.80553041     0.77300
O531        O  0.34074309  0.80889872  0.90695278    -0.58900
O532        O  0.30572970  0.89419852  0.89255607    -0.57300
O533        O  0.41153645  0.88205388  0.84378928    -0.57300
O534        O  0.38572253  0.83360678  0.81188553    -0.56500
O535        O  0.16832636  0.64275784  0.65142706    -0.57700
C536        C  0.06438409  0.61681866  0.63227341     0.74900
O537        O  0.09269999  0.70530186  0.67158065    -0.58900
C538        C  0.18224880  0.63373785  0.61718644     0.74900
C539        C  0.11338559  0.71386609  0.55062115     0.77300
Cd540      Cd  0.11699018  0.66645894  0.61895110     1.37500
O541        O  0.08625598  0.62477569  0.65989717    -0.57700
O542        O  0.12729105  0.68549923  0.54546582    -0.56500
C543        C  0.12069424  0.71836536  0.68247829     0.77300
O544        O  0.09840142  0.71835805  0.58545674    -0.58900
O545        O  0.06633564  0.63186780  0.59711364    -0.57300
O546        O  0.16473190  0.63768147  0.58381132    -0.57300
O547        O  0.14687241  0.70584549  0.66566065    -0.56500
O548        O  0.08658274  0.89992699  0.91005784    -0.57700
C549        C  0.18910667  0.92473179  0.86318534     0.74900
O550        O  0.15195898  0.82171463  0.90140387    -0.58900
C551        C  0.06796637  0.90278122  0.87737344     0.74900
C552        C  0.13429639  0.82900952  0.80188581     0.77300
Cd553      Cd  0.13520905  0.87582254  0.87150468     1.37500
O554        O  0.16415155  0.92293829  0.83809486    -0.57700
O555        O  0.10870426  0.84657501  0.81123068    -0.56500
C556        C  0.13511470  0.82440982  0.93519223     0.77300
O557        O  0.16090391  0.83520532  0.82295617    -0.58900
O558        O  0.18832642  0.90545247  0.89488907    -0.57300
O559        O  0.08199656  0.89677098  0.84215516    -0.57300
O560        O  0.12078937  0.85243069  0.94141528    -0.56500
C561        C  0.14565072  0.74112721  0.49306597    -0.20200
C562        C  0.11688915  0.74121396  0.51916777    -0.06800
C563        C  0.09433132  0.76878775  0.51728720     0.14100
C564        C  0.10104024  0.79529870  0.98951451    -0.20200
C565        C  0.13043743  0.79579666  0.96456589    -0.06800
C566        C  0.15308276  0.76827992  0.96656703     0.14100
C567        C  0.18559756  0.76738163  0.94159107    -0.23600
H568        H  0.16319683  0.72027600  0.49483005     0.15400
H569        H  0.08330099  0.81597140  0.98743173     0.15400
C570        C  0.06225612  0.77012222  0.54311329    -0.23500
H571        H  0.20115521  0.74503423  0.94945429     0.05600
H572        H  0.20100166  0.79006154  0.94889707     0.08900
H573        H  0.17997055  0.76618133  0.90710013     0.08900
H574        H  0.06844302  0.77211957  0.57739482     0.08800
H575        H  0.04681085  0.74725723  0.53700416     0.08800
H576        H  0.04649185  0.79225142  0.53491848     0.05600
C577        C  0.10077593  0.79569729  0.74985147    -0.20200
C578        C  0.13226276  0.80175481  0.76955008    -0.06800
C579        C  0.15986622  0.78030837  0.75991445     0.14100
C580        C  0.15496026  0.75352131  0.73149750    -0.20200
C581        C  0.12328743  0.74697627  0.71270994    -0.06800
C582        C  0.09580579  0.76863127  0.72183699     0.14100
C583        C  0.06124532  0.76395601  0.70199686    -0.23600
H584        H  0.07953858  0.81196101  0.75692163     0.15400
H585        H  0.17611856  0.73716681  0.72436700     0.15400
C586        C  0.19456139  0.78482241  0.77947436    -0.23500
H587        H  0.04333667  0.78400917  0.71176315     0.05600
H588        H  0.05018916  0.73964208  0.71207007     0.08900
H589        H  0.06326756  0.76467721  0.66688666     0.08900
H590        H  0.19314527  0.78164058  0.81439290     0.08800
H591        H  0.20467588  0.81008037  0.77174113     0.08800
H592        H  0.21295355  0.76602876  0.76739315     0.05600
C593        C  0.47561759  0.91551944  0.84765662    -0.20200
C594        C  0.45964562  0.90169511  0.88327976    -0.06800
C595        C  0.47941052  0.89413319  0.91959578     0.14100
C596        C  0.01463066  0.89822775  0.91779123    -0.20200
C597        C  0.03091384  0.90870806  0.88057423    -0.06800
C598        C  0.01088823  0.91913101  0.84564978     0.14100
C599        C  0.02636475  0.93397450  0.80628736    -0.23600
H600        H  0.46043553  0.92202531  0.82017260     0.15400
H601        H  0.02978673  0.89057964  0.94480571     0.15400
C602        C  0.46404510  0.87931568  0.95905573    -0.23500
H603        H  0.00667605  0.94352907  0.78417180     0.05600
H604        H  0.04108730  0.91474681  0.78878980     0.08900
H605        H  0.04306239  0.95537773  0.81516212     0.08900
H606        H  0.45128726  0.85517922  0.95122955     0.08800
H607        H  0.44549612  0.89714003  0.97287532     0.08800
H608        H  0.48347798  0.87414160  0.98374953     0.05600
C609        C  0.27255697  0.61185062  0.64949997    -0.20200
C610        C  0.28971214  0.61845236  0.61143810    -0.06800
C611        C  0.27046329  0.62296897  0.57384249     0.14100
C612        C  0.23498415  0.62439282  0.57639547    -0.20200
C613        C  0.21812658  0.62233030  0.61548330    -0.06800
C614        C  0.23710191  0.61381026  0.65215500     0.14100
C615        C  0.22061505  0.60748994  0.69446059    -0.23600
H616        H  0.28710860  0.60722546  0.67811574     0.15400
H617        H  0.22056052  0.62987714  0.54794461     0.15400
C618        C  0.28679335  0.62873725  0.53132216    -0.23500
H619        H  0.23914668  0.59826830  0.71830751     0.05600
H620        H  0.20053351  0.58810617  0.69086706     0.08900
H621        H  0.20964642  0.63103147  0.70728928     0.08900
H622        H  0.30322602  0.60709866  0.52309742     0.08800
H623        H  0.30197761  0.65222575  0.53216177     0.08800
H624        H  0.26769984  0.63136455  0.50556899     0.05600
C625        C  0.35480825  0.72993490  0.99947037    -0.20200
C626        C  0.38406812  0.73169416  0.52370166    -0.06800
C627        C  0.40482583  0.76068535  0.52134128     0.14100
C628        C  0.39540706  0.78688093  0.49415807    -0.20200
C629        C  0.36608744  0.78509613  0.96972182    -0.06800
C630        C  0.34529697  0.75612658  0.97235437     0.14100
C631        C  0.31270881  0.75256657  0.94754088    -0.23600
H632        H  0.33859968  0.70801371  0.00168692     0.15400
H633        H  0.41175222  0.80868956  0.49184844     0.15400
C634        C  0.43728237  0.76419668  0.54648081    -0.23500
H635        H  0.29876588  0.72929162  0.95595252     0.05600
H636        H  0.31811301  0.75123354  0.91306027     0.08900
H637        H  0.29584658  0.77417918  0.95443557     0.08900
H638        H  0.45421794  0.74262611  0.53966243     0.08800
H639        H  0.43166583  0.76538239  0.58091958     0.08800
H640        H  0.45123078  0.78753188  0.53835097     0.05600
C641        C  0.35144579  0.73391950  0.73500470    -0.20200
C642        C  0.38383654  0.73081896  0.71703858    -0.06800
C643        C  0.40915068  0.75458453  0.72804387     0.14100
C644        C  0.40122699  0.78061367  0.75640771    -0.20200
C645        C  0.36880487  0.78376912  0.77437800    -0.06800
C646        C  0.34352817  0.75988241  0.76346270     0.14100
C647        C  0.30808625  0.76130860  0.78114100    -0.23600
H648        H  0.33185858  0.71600431  0.72638463     0.15400
H649        H  0.42084233  0.79852745  0.76490613     0.15400
C650        C  0.44474243  0.75265453  0.71091476    -0.23500
H651        H  0.29163890  0.74113957  0.76785799     0.05600
H652        H  0.29618916  0.78571757  0.77314718     0.08900
H653        H  0.30880878  0.75796589  0.81607277     0.08900
H654        H  0.44451032  0.75641328  0.67605325     0.08800
H655        H  0.45600847  0.72789040  0.71861116     0.08800
H656        H  0.46144586  0.77232779  0.72487543     0.05600
C657        C  0.24050093  0.03303609  0.93727952    -0.20200
C658        C  0.25739254  0.00245256  0.93144080    -0.06800
C659        C  0.27239053  0.98741587  0.96772063     0.14100
C660        C  0.26671230  0.00123459  0.50851056    -0.20200
C661        C  0.24928380  0.03171612  0.51469592    -0.06800
C662        C  0.23781835  0.04876315  0.47730219     0.14100
C663        C  0.22403546  0.08418014  0.47669751    -0.23600
H664        H  0.22939938  0.04543517  0.91004823     0.15400
H665        H  0.27855537  0.98894880  0.53517282     0.15400
C666        C  0.29700679  0.95871488  0.96460885    -0.23500
H667        H  0.23910877  0.09924852  0.95314726     0.05600
H668        H  0.22652820  0.09807448  0.50687080     0.08900
H669        H  0.19691526  0.08366089  0.46720942     0.08900
H670        H  0.30503249  0.95383415  0.93163841     0.08800
H671        H  0.28566337  0.93571720  0.97838510     0.08800
H672        H  0.32048058  0.96507034  0.98251252     0.05600
C673        C  0.26673321  0.03165464  0.75870137    -0.20200
C674        C  0.25432645  0.99880821  0.76451882    -0.06800
C675        C  0.24492391  0.98045217  0.72699911     0.14100
C676        C  0.24430704  0.99652245  0.68729978    -0.20200
C677        C  0.25644069  0.02931849  0.68160532    -0.06800
C678        C  0.26959183  0.04623904  0.71803209     0.14100
C679        C  0.28971280  0.07824291  0.71519312    -0.23600
H680        H  0.27661359  0.04559724  0.78550484     0.15400
H681        H  0.23448331  0.98269383  0.66023066     0.15400
C682        C  0.23567857  0.94356209  0.72610069    -0.23500
H683        H  0.31319459  0.07613395  0.73454170     0.05600
H684        H  0.27454651  0.09962586  0.72739217     0.08900
H685        H  0.29825971  0.08306580  0.68249104     0.08900
H686        H  0.20878293  0.94062534  0.71626642     0.08800
H687        H  0.23941147  0.93025912  0.75632110     0.08800
H688        H  0.25186043  0.93041393  0.70256692     0.05600
C689        C  0.12932888  0.25795008  0.71126245    -0.20200
C690        C  0.12445645  0.22496742  0.72581901    -0.06800
C691        C  0.11504433  0.21991783  0.76858239     0.14100
C692        C  0.11014415  0.24788506  0.79505943    -0.20200
C693        C  0.11459435  0.28090026  0.78038977    -0.06800
C694        C  0.12463104  0.28592122  0.73780072     0.14100
C695        C  0.13000956  0.32044851  0.71953349    -0.23600
H696        H  0.13637993  0.26202475  0.67849057     0.15400
H697        H  0.10316935  0.24378261  0.82784719     0.15400
C698        C  0.11071058  0.18533529  0.78709257    -0.23500
H699        H  0.10661068  0.33560071  0.72315453     0.05600
H700        H  0.15153953  0.33309476  0.73583578     0.08900
H701        H  0.13615668  0.31941175  0.68519508     0.08900
H702        H  0.13424776  0.17055879  0.78248369     0.08800
H703        H  0.08897704  0.17231287  0.77173790     0.08800
H704        H  0.10550515  0.18633064  0.82167903     0.05600
C705        C  0.14768418  0.24565600  0.52512616    -0.20200
C706        C  0.11869865  0.22561591  0.53058719    -0.06800
C707        C  0.08847931  0.23436694  0.50887923     0.14100
C708        C  0.08808298  0.26221839  0.98261815    -0.20200
C709        C  0.11704949  0.28229182  0.97702771    -0.06800
C710        C  0.14717367  0.27383799  0.99921833     0.14100
C711        C  0.17957112  0.29448850  0.49571190    -0.23600
H712        H  0.17075728  0.23939987  0.54205659     0.15400
H713        H  0.06500572  0.26833728  0.96562414     0.15400
C714        C  0.05625329  0.21417326  0.51267447    -0.23500
H715        H  0.19988239  0.28482278  0.51684855     0.05600
H716        H  0.17417554  0.32072692  0.00547875     0.08900
H717        H  0.18906920  0.29339440  0.96306379     0.08900
H718        H  0.04677997  0.21528725  0.54574763     0.08800
H719        H  0.06098089  0.18770757  0.50323143     0.08800
H720        H  0.03577257  0.22322844  0.99173435     0.05600
C721        C  0.26882908  0.39451597  0.82668313    -0.20200
C722        C  0.28625243  0.40333293  0.86407903    -0.06800
C723        C  0.26735712  0.41160454  0.90079887     0.14100
C724        C  0.23196788  0.40846353  0.89981852    -0.20200
C725        C  0.21481900  0.39649271  0.86366686    -0.06800
C726        C  0.23348841  0.39038389  0.82607461     0.14100
C727        C  0.21701802  0.37728262  0.78598537    -0.23600
H728        H  0.28314602  0.38831768  0.79845373     0.15400
H729        H  0.21771007  0.41374250  0.92839383     0.15400
C730        C  0.28401012  0.42302569  0.94156992    -0.23500
H731        H  0.20457179  0.35277495  0.79218945     0.05600
H732        H  0.19804740  0.39560548  0.77429922     0.08900
H733        H  0.23574832  0.37326070  0.76025480     0.08900
H734        H  0.30107153  0.44461369  0.93528283     0.08800
H735        H  0.29852456  0.40213486  0.95596662     0.08800
H736        H  0.26506887  0.43123881  0.96541021     0.05600
C737        C  0.00430561  0.10361766  0.59935945    -0.20200
C738        C  0.02144814  0.11182157  0.63718884    -0.06800
C739        C  0.00203230  0.11890397  0.67396957     0.14100
C740        C  0.46657815  0.12249442  0.67020434    -0.20200
C741        C  0.45009942  0.11922135  0.63079131    -0.06800
C742        C  0.46886775  0.10746879  0.59554014     0.15300
C743        C  0.45227499  0.09912641  0.55358513    -0.23600
H744        H  0.01880971  0.09669593  0.57154740     0.15400
H745        H  0.45214414  0.13035839  0.69768531     0.15400
C746        C  0.01813188  0.12495223  0.71681431    -0.23500
H747        H  0.47031216  0.08698534  0.53135977     0.05600
H748        H  0.44299339  0.12225776  0.53798597     0.08900
H749        H  0.43091462  0.08141926  0.55862211     0.08900
H750        H  0.03416657  0.14785931  0.71608464     0.08800
H751        H  0.03366643  0.10288823  0.72585394     0.08800
H752        H  0.99884794  0.12873826  0.74194766     0.05600
C753        C  0.34471585  0.26768023  0.51325903    -0.20200
C754        C  0.36963093  0.24297367  0.51902185    -0.06800
C755        C  0.40102598  0.24639861  0.99732462     0.14100
C756        C  0.40601590  0.27390342  0.97033450    -0.20200
C757        C  0.38097321  0.29842815  0.96455779    -0.06800
C758        C  0.34957628  0.29486169  0.98578830     0.14100
C759        C  0.32077179  0.31932108  0.97993512    -0.23600
H760        H  0.32091302  0.26562231  0.53005985     0.15400
H761        H  0.42987495  0.27636846  0.95372313     0.15400
C762        C  0.42861334  0.22030544  0.50021259    -0.23500
H763        H  0.29855952  0.31280485  0.49995209     0.05600
H764        H  0.31368066  0.32077614  0.94586146     0.08900
H765        H  0.32830725  0.34451901  0.99188597     0.08900
H766        H  0.41904035  0.19516596  0.49053561     0.08800
H767        H  0.43830165  0.21954863  0.53330138     0.08800
H768        H  0.45166897  0.22807265  0.98217257     0.05600
C769        C  0.40366806  0.27686728  0.76146823    -0.20200
C770        C  0.38030738  0.30315947  0.76527796    -0.06800
C771        C  0.34954823  0.30163548  0.74204409     0.14100
C772        C  0.34297598  0.27363578  0.71608218    -0.20200
C773        C  0.36601595  0.24691885  0.71303343    -0.06800
C774        C  0.39711019  0.24885921  0.73566089     0.14100
C775        C  0.42402448  0.22211433  0.73234547    -0.23600
H776        H  0.42722379  0.27809596  0.77923638     0.15400
H777        H  0.31938309  0.27241892  0.69841592     0.15400
C778        C  0.32285354  0.32855049  0.74562188    -0.23500
H779        H  0.44711542  0.22875626  0.75085896     0.05600
H780        H  0.43170480  0.21883874  0.69872767     0.08900
H781        H  0.41431260  0.19802631  0.74504578     0.08900
H782        H  0.33307321  0.35283115  0.73416099     0.08800
H783        H  0.31468337  0.33115002  0.77914622     0.08800
H784        H  0.30002802  0.32253649  0.72627886     0.05600
C785        C  0.53654096  0.53712932  0.53090429    -0.20200
C786        C  0.01283258  0.52717356  0.56105631    -0.06800
C787        C  0.98698897  0.50464052  0.54901415     0.14100
C788        C  0.98533532  0.49238454  0.00713473    -0.20200
C789        C  0.00890549  0.50186407  0.97539438    -0.06800
C790        C  0.53566244  0.52376434  0.98889744     0.14100
C791        C  0.56409497  0.53370293  0.95966394    -0.23600
H792        H  0.55632852  0.55459862  0.54028153     0.15400
H793        H  0.96651976  0.47339240  0.00119941     0.15400
C794        C  0.95950257  0.49440340  0.57955757    -0.23500
H795        H  0.58435629  0.54764035  0.97688599     0.05600
H796        H  0.55466700  0.55069167  0.93463538     0.08900
H797        H  0.07605980  0.51114232  0.94488353     0.08900
H798        H  0.44655429  0.51771041  0.59262592     0.08800
H799        H  0.97035635  0.47961053  0.60596888     0.08800
H800        H  0.93983342  0.47855679  0.56398024     0.05600
C801        C  0.02702336  0.49851428  0.73285054    -0.20200
C802        C  0.01265277  0.53053076  0.72689509    -0.06800
C803        C  0.50230584  0.54853846  0.76458994     0.14100
C804        C  0.50178978  0.53223764  0.80396711    -0.20200
C805        C  0.01626672  0.50032854  0.80962341    -0.06800
C806        C  0.03080686  0.48425872  0.77360981     0.14100
C807        C  0.05317718  0.45380185  0.77691860    -0.23600
H808        H  0.03792515  0.48534388  0.70615713     0.15400
H809        H  0.49072204  0.54542054  0.83061523     0.15400
C810        C  0.49246139  0.58523230  0.76567836    -0.23500
H811        H  0.07685505  0.45802070  0.75875962     0.05600
H812        H  0.03993049  0.43152220  0.76348893     0.08900
H813        H  0.06133498  0.44890457  0.80987768     0.08900
H814        H  0.46502456  0.58753720  0.77274607     0.08800
H815        H  0.49819664  0.59917210  0.73642461     0.08800
H816        H  0.50697914  0.59822381  0.79120513     0.05600
C817        C  0.00848373  0.48347674  0.43165585     0.86600
C818        C  0.53560540  0.45624934  0.43097920    -0.53600
C819        C  0.53619117  0.43740316  0.39475606     0.09500
C820        C  0.50883817  0.44724183  0.36216476     0.20500
C821        C  0.51427150  0.50404758  0.39097849    -0.54400
C822        C  0.51468907  0.48514760  0.35391271     0.09600
C823        C  0.97491613  0.46515887  0.42153445    -0.53900
C824        C  0.97533873  0.44544713  0.38627171     0.10200
H825        H  0.55312128  0.45217903  0.45712795     0.14700
H826        H  0.50828142  0.43121117  0.33333699     0.00500
H827        H  0.01627289  0.53088134  0.39055272     0.15000
H828        H  0.95178025  0.46796216  0.43946726     0.14800
C829        C  0.51125937  0.54649679  0.18260479     0.86600
C830        C  0.97764654  0.56438638  0.17385625    -0.53600
C831        C  0.97690216  0.58320837  0.13792056     0.09500
C832        C  0.50923275  0.58043515  0.11141380     0.20500
C833        C  0.51534523  0.52448173  0.14206530    -0.54400
C834        C  0.51375097  0.54239557  0.10470155     0.09600
C835        C  0.53899374  0.57316270  0.17840327    -0.53900
C836        C  0.53832281  0.59074159  0.14144847     0.10200
H837        H  0.95643090  0.56332621  0.19564084     0.14700
H838        H  0.50828617  0.59505737  0.08151812     0.00500
H839        H  0.51788196  0.49741239  0.14231973     0.15000
H840        H  0.55794017  0.57748238  0.20295695     0.14800
O841        O  0.89641768  0.13713124  0.15842128    -0.57700
C842        C  0.79722478  0.12187624  0.10664200     0.74900
O843        O  0.83848797  0.22251460  0.15240538    -0.58900
C844        C  0.91561017  0.13250316  0.12678174     0.74900
C845        C  0.86326581  0.21607761  0.05017514     0.77300
Cd846      Cd  0.85300133  0.16891853  0.11795894     1.37500
O847        O  0.81934919  0.12813024  0.07899718    -0.57700
O848        O  0.88451144  0.19341361  0.05875029    -0.56500
C849        C  0.85870031  0.21875743  0.18328883     0.77300
O850        O  0.83599117  0.21526316  0.07120967    -0.58900
O851        O  0.79954916  0.13848109  0.14083473    -0.57300
O852        O  0.90442019  0.14266584  0.09147775    -0.57300
O853        O  0.87267008  0.19035145  0.18626198    -0.56500
O854        O  0.84102327  0.39756411  0.33165774    -0.57700
C855        C  0.94668530  0.42280118  0.37638003     0.74900
O856        O  0.90962164  0.32346402  0.40530594    -0.58900
C857        C  0.82354105  0.39883750  0.36530968     0.74900
C858        C  0.88708798  0.32907818  0.29795602     0.77300
Cd859      Cd  0.89186339  0.37469564  0.36731494     1.37500
O860        O  0.92010056  0.42339031  0.39840150    -0.57700
O861        O  0.87499972  0.35844381  0.29533178    -0.56500
C862        C  0.88738383  0.32596995  0.43396063     0.77300
O863        O  0.90437155  0.32256522  0.33081434    -0.58900
O864        O  0.94776782  0.40078411  0.34750572    -0.57300
O865        O  0.83909662  0.39256962  0.39944298    -0.57300
O866        O  0.87026801  0.35267646  0.43393112    -0.56500
O867        O  0.57709916  0.12335629  0.16765627    -0.57700
C868        C  0.68079796  0.10176481  0.11616077     0.74900
O869        O  0.64869241  0.18745166  0.07615500    -0.58900
C870        C  0.55853721  0.11864494  0.13529924     0.74900
C871        C  0.62744548  0.19692197  0.19525637     0.77300
Cd872      Cd  0.62500282  0.14802501  0.12808243     1.37500
O873        O  0.65532098  0.10250865  0.09176572    -0.57700
O874        O  0.61419861  0.16831645  0.20068959    -0.56500
C875        C  0.62051407  0.19719596  0.06147786     0.77300
O876        O  0.64218726  0.20132409  0.16020308    -0.58900
O877        O  0.67951055  0.12046443  0.14861647    -0.57300
O878        O  0.57263395  0.12329257  0.09975244    -0.57300
O879        O  0.59468528  0.18238992  0.07576175    -0.56500
O880        O  0.65890843  0.38352196  0.33716768    -0.57700
C881        C  0.56143173  0.41048360  0.38830063     0.74900
O882        O  0.59560044  0.30447903  0.34681214    -0.58900
C883        C  0.67874566  0.38705904  0.36850987     0.74900
C884        C  0.61533290  0.31077312  0.44597044     0.77300
Cd885      Cd  0.61231913  0.35857311  0.37810353     1.37500
O886        O  0.58482573  0.40549714  0.41496398    -0.57700
O887        O  0.64130417  0.32613294  0.43296232    -0.56500
C888        C  0.61027570  0.30885702  0.31168927     0.77300
O889        O  0.58742119  0.31947924  0.42937164    -0.58900
O890        O  0.56114759  0.39140421  0.35612054    -0.57300
O891        O  0.66657099  0.38006997  0.40452178    -0.57300
O892        O  0.62274191  0.33771680  0.30582050    -0.56500
C893        C  0.75324883  0.98291593  0.30934867     0.86600
C894        C  0.71919603  0.96569836  0.31788768    -0.53600
C895        C  0.71819101  0.94703599  0.35394346     0.09500
C896        C  0.75108795  0.94863395  0.38031080     0.20500
C897        C  0.75863398  0.00454600  0.35023242    -0.54400
C898        C  0.75731634  0.98657741  0.38776360     0.09600
C899        C  0.78020448  0.95550214  0.31308616    -0.53900
C900        C  0.77938534  0.93752175  0.34971482     0.10200
H901        H  0.69796328  0.96702528  0.29591959     0.14700
H902        H  0.74965329  0.93351500  0.40970735     0.00500
H903        H  0.76180677  0.03154947  0.35007708     0.15000
H904        H  0.79872667  0.95090462  0.28832764     0.14800
C905        C  0.74742857  0.04802355  0.05952352     0.86600
C906        C  0.77227332  0.07732996  0.06211520    -0.53600
C907        C  0.77146187  0.09539617  0.09879169     0.09500
C908        C  0.74471862  0.08264443  0.13059496     0.20500
C909        C  0.75545867  0.02723636  0.10016854    -0.54400
C910        C  0.75381678  0.04528157  0.13790021     0.09600
C911        C  0.71241514  0.06268376  0.06940208    -0.53900
C912        C  0.71103493  0.08154276  0.10557025     0.10200
H913        H  0.79004850  0.08266139  0.03676103     0.14700
H914        H  0.74290799  0.09804603  0.15986065     0.00500
H915        H  0.76078073  0.00059506  0.09958669     0.15000
H916        H  0.69079275  0.05958747  0.04829637     0.14800
O917        O  0.84547078  0.62718431  0.08202856    -0.57700
C918        C  0.94843022  0.60620806  0.12925821     0.74900
O919        O  0.90866575  0.70756542  0.08704827    -0.58900
C920        C  0.82640877  0.62630541  0.11423948     0.74900
C921        C  0.88977580  0.70304874  0.18608103     0.77300
Cd922      Cd  0.89365612  0.65405796  0.11936187     1.37500
O923        O  0.92599010  0.61139993  0.15688655    -0.57700
O924        O  0.86892855  0.67899696  0.18281946    -0.56500
C925        C  0.89092845  0.70357753  0.05395091     0.77300
O926        O  0.91418006  0.70279208  0.16020244    -0.58900
O927        O  0.94546334  0.62247338  0.09514688    -0.57300
O928        O  0.84001372  0.63467386  0.14915089    -0.57300
O929        O  0.87730914  0.67496146  0.04906826    -0.56500
O930        O  0.90399053  0.88882569  0.41067206    -0.57700
C931        C  0.80484040  0.91104364  0.35825831     0.74900
O932        O  0.83711970  0.81411395  0.32701553    -0.58900
C933        C  0.92362564  0.89120913  0.37914421     0.74900
C934        C  0.85937197  0.81255205  0.43826481     0.77300
Cd935      Cd  0.85769966  0.86103884  0.37113471     1.37500
O936        O  0.82767959  0.90451204  0.33160534    -0.57700
O937        O  0.87429163  0.84061756  0.44169114    -0.56500
C938        C  0.86371965  0.81154038  0.30499814     0.77300
O939        O  0.84068880  0.80876407  0.40592437    -0.58900
O940        O  0.80563869  0.89414606  0.39210347    -0.57300
O941        O  0.91143730  0.88241154  0.34356327    -0.57300
O942        O  0.88629956  0.83348716  0.31192375    -0.56500
O943        O  0.66789433  0.64264360  0.15136148    -0.57700
C944        C  0.56413041  0.61660298  0.13229462     0.74900
O945        O  0.59216643  0.70555377  0.17090188    -0.58900
C946        C  0.68195389  0.63382942  0.11712550     0.74900
C947        C  0.61308879  0.71371576  0.05042855     0.77300
Cd948      Cd  0.61658352  0.66633748  0.11879522     1.37500
O949        O  0.58591688  0.62475514  0.15992520    -0.57700
O950        O  0.62701003  0.68535005  0.04533872    -0.56500
C951        C  0.62021237  0.71821619  0.18233681     0.77300
O952        O  0.59802301  0.71823737  0.08520598    -0.58900
O953        O  0.56609778  0.63149142  0.09702549    -0.57300
O954        O  0.66451876  0.63785308  0.08369679    -0.57300
O955        O  0.64640160  0.70533042  0.16599154    -0.56500
O956        O  0.58675717  0.89981280  0.41008790    -0.57700
C957        C  0.68915219  0.92478921  0.36305251     0.74900
O958        O  0.65277268  0.82210837  0.40179438    -0.58900
C959        C  0.56804998  0.90256627  0.37746530     0.74900
C960        C  0.63431615  0.82879332  0.30179458     0.77300
Cd961      Cd  0.63532393  0.87576865  0.37129751     1.37500
O962        O  0.66427623  0.92287950  0.33785664    -0.57700
O963        O  0.60918999  0.84733849  0.31003826    -0.56500
C964        C  0.63514651  0.82441212  0.43499839     0.77300
O965        O  0.66057564  0.83405546  0.32390871    -0.58900
O966        O  0.68832793  0.90556792  0.39480474    -0.57300
O967        O  0.58196948  0.89643106  0.34220973    -0.57300
O968        O  0.62001625  0.85208240  0.44068133    -0.56500
C969        C  0.64589387  0.74134974  0.99367363    -0.20200
C970        C  0.61669050  0.74104782  0.01899312    -0.06800
C971        C  0.59375790  0.76827488  0.01645448     0.14100
C972        C  0.60095784  0.79490402  0.48887538    -0.20200
C973        C  0.63055967  0.79574008  0.46431405    -0.06800
C974        C  0.65352179  0.76849412  0.46666074     0.14100
C975        C  0.68619587  0.76787421  0.44199425    -0.23600
H976        H  0.66374379  0.72078922  0.99601823     0.15400
H977        H  0.58296745  0.81534247  0.48651488     0.15400
C978        C  0.56129557  0.76918753  0.04153841    -0.23500
H979        H  0.70192792  0.74569023  0.45005044     0.05600
H980        H  0.70133950  0.79070763  0.44938847     0.08900
H981        H  0.68077804  0.76656553  0.40745544     0.08900
H982        H  0.56695830  0.77132762  0.07594653     0.08800
H983        H  0.54628172  0.74608637  0.03516509     0.08800
H984        H  0.54533153  0.79107241  0.03291243     0.05600
C985        C  0.60055017  0.79550333  0.24997353    -0.20200
C986        C  0.63210521  0.80149723  0.26953128    -0.06800
C987        C  0.65963876  0.78000823  0.25975649     0.14100
C988        C  0.65460781  0.75325095  0.23133788    -0.20200
C989        C  0.62288277  0.74678503  0.21263687    -0.06800
C990        C  0.59545506  0.76847010  0.22193273     0.14100
C991        C  0.56081582  0.76385226  0.20228743    -0.23600
H992        H  0.57935525  0.81177867  0.25719878     0.15400
H993        H  0.67573127  0.73688197  0.22410255     0.15400
C994        C  0.69443092  0.78452795  0.27904118    -0.23500
H995        H  0.54294294  0.78387111  0.21226833     0.05600
H996        H  0.54980601  0.73950240  0.21230641     0.08900
H997        H  0.56269380  0.76469174  0.16716857     0.08900
H998        H  0.69323834  0.78113733  0.31393879     0.08800
H999        H  0.70441066  0.80986635  0.27144767     0.08800
H1000       H  0.71281314  0.76586059  0.26662698     0.05600
C1001       C  0.97557592  0.91550229  0.34755993    -0.20200
C1002       C  0.95958802  0.90173982  0.38320795    -0.06800
C1003       C  0.97933552  0.89427116  0.41957377     0.14100
C1004       C  0.51474043  0.89819075  0.41801088    -0.20200
C1005       C  0.53102684  0.90860078  0.38076063    -0.06800
C1006       C  0.51101643  0.91913641  0.34587960     0.14100
C1007       C  0.52651764  0.93387219  0.30646686    -0.23600
H1008       H  0.96041215  0.92194780  0.32003738     0.15400
H1009       H  0.52989387  0.89045427  0.44498744     0.15400
C1010       C  0.96396034  0.87955248  0.45908676    -0.23500
H1011       H  0.50685385  0.94355139  0.28440453     0.05600
H1012       H  0.54107492  0.91454202  0.28892995     0.08900
H1013       H  0.54337451  0.95516684  0.31528448     0.08900
H1014       H  0.95125097  0.85537107  0.45136423     0.08800
H1015       H  0.94537142  0.89739065  0.47279434     0.08800
H1016       H  0.98338144  0.87448481  0.48383139     0.05600
C1017       C  0.77226434  0.61204991  0.14966903    -0.20200
C1018       C  0.78950372  0.61879750  0.11170648    -0.06800
C1019       C  0.77033161  0.62352511  0.07409104     0.14100
C1020       C  0.73484710  0.62490698  0.07652149    -0.20200
C1021       C  0.71788623  0.62257210  0.11550815    -0.06800
C1022       C  0.73678876  0.61391483  0.15218947     0.14100
C1023       C  0.72018829  0.60728697  0.19434827    -0.23600
H1024       H  0.78675835  0.60730175  0.17829706     0.15400
H1025       H  0.72048914  0.63053145  0.04806380     0.15400
C1026       C  0.78675278  0.62955591  0.03168507    -0.23500
H1027       H  0.73867998  0.59800251  0.21820371     0.05600
H1028       H  0.70019772  0.58784222  0.19047168     0.08900
H1029       H  0.70907611  0.63070816  0.20733192     0.08900
H1030       H  0.80313815  0.60793200  0.02325387     0.08800
H1031       H  0.80200327  0.65299589  0.03284469     0.08800
H1032       H  0.76771633  0.63242158  0.00590884     0.05600
C1033       C  0.85390894  0.73010362  0.49905190    -0.20200
C1034       C  0.88429673  0.73143172  0.02400453    -0.06800
C1035       C  0.90506701  0.76040701  0.02153763     0.14100
C1036       C  0.89564721  0.78655369  0.99425970    -0.20200
C1037       C  0.86565610  0.78501070  0.46888714    -0.06800
C1038       C  0.84440770  0.75642743  0.47212135     0.14100
C1039       C  0.81132962  0.75350343  0.44822199    -0.23600
H1040       H  0.83735176  0.70847972  0.50178798     0.15400
H1041       H  0.91200651  0.80834416  0.99184948     0.15400
C1042       C  0.93752403  0.76394775  0.04667011    -0.23500
H1043       H  0.79705672  0.73054194  0.45711486     0.05600
H1044       H  0.81608916  0.75199398  0.41360192     0.08900
H1045       H  0.79506542  0.77549021  0.45548615     0.08900
H1046       H  0.95446044  0.74236966  0.03989402     0.08800
H1047       H  0.93190567  0.76516431  0.08110747     0.08800
H1048       H  0.95146766  0.78727644  0.03849858     0.05600
C1049       C  0.85180889  0.73415275  0.23443733    -0.20200
C1050       C  0.88437200  0.73062868  0.21711716    -0.06800
C1051       C  0.90983464  0.75412311  0.22849408     0.14100
C1052       C  0.90188677  0.78030520  0.25664259    -0.20200
C1053       C  0.86927484  0.78387875  0.27397111    -0.06800
C1054       C  0.84384687  0.76027704  0.26261741     0.14100
C1055       C  0.80818545  0.76217387  0.27952499    -0.23600
H1056       H  0.83211008  0.71645919  0.22548215     0.15400
H1057       H  0.92161110  0.79800240  0.26547179     0.15400
C1058       C  0.94558810  0.75171202  0.21199999    -0.23500
H1059       H  0.79166230  0.74219030  0.26594215     0.05600
H1060       H  0.79671215  0.78671392  0.27121012     0.08900
H1061       H  0.80838078  0.75887741  0.31447176     0.08900
H1062       H  0.94580002  0.75542678  0.17713343     0.08800
H1063       H  0.95643289  0.72680829  0.21992180     0.08800
H1064       H  0.96238584  0.77118876  0.22622373     0.05600
C1065       C  0.74016669  0.03293936  0.43736184    -0.20200
C1066       C  0.75727052  0.00248199  0.43148276    -0.06800
C1067       C  0.77239114  0.98752013  0.46773701     0.14100
C1068       C  0.76672776  0.00111384  0.00862152    -0.20200
C1069       C  0.74952826  0.03174021  0.01470962    -0.06800
C1070       C  0.73825490  0.04882609  0.97725772     0.14100
C1071       C  0.72465528  0.08431258  0.97657014    -0.23600
H1072       H  0.72896054  0.04527086  0.41014651     0.15400
H1073       H  0.77840407  0.98874653  0.03533378     0.15400
C1074       C  0.79715281  0.95894390  0.46457641    -0.23500
H1075       H  0.73839674  0.09908601  0.45299251     0.05600
H1076       H  0.72698823  0.09816771  0.00678780     0.08900
H1077       H  0.69759493  0.08393239  0.96680686     0.08900
H1078       H  0.80503770  0.95396836  0.43157231     0.08800
H1079       H  0.78600455  0.93593257  0.47856021     0.08800
H1080       H  0.82067299  0.96549180  0.48227365     0.05600
C1081       C  0.76677962  0.03187735  0.25873984    -0.20200
C1082       C  0.75427402  0.99906561  0.26454694    -0.06800
C1083       C  0.74485168  0.98072806  0.22701947     0.14100
C1084       C  0.74429698  0.99679398  0.18732265    -0.20200
C1085       C  0.75656624  0.02953703  0.18162325    -0.06800
C1086       C  0.76974996  0.04642628  0.21805744     0.14100
C1087       C  0.79002751  0.07833356  0.21522476    -0.23600
H1088       H  0.77667869  0.04579031  0.28556117     0.15400
H1089       H  0.73444296  0.98298977  0.16025008     0.15400
C1090       C  0.73555406  0.94385014  0.22609452    -0.23500
H1091       H  0.81359987  0.07601027  0.23435733     0.05600
H1092       H  0.77504787  0.09975321  0.22768320     0.08900
H1093       H  0.79841901  0.08325500  0.18248676     0.08900
H1094       H  0.70864955  0.94095507  0.21627983     0.08800
H1095       H  0.73929650  0.93051551  0.25629008     0.08800
H1096       H  0.75170492  0.93069499  0.20253326     0.05600
C1097       C  0.62953014  0.25768849  0.21194562    -0.20200
C1098       C  0.62427496  0.22476620  0.22648800    -0.06800
C1099       C  0.61428953  0.21985633  0.26907992     0.14100
C1100       C  0.60930701  0.24791248  0.29541567    -0.20200
C1101       C  0.61421648  0.28086732  0.28075424    -0.06800
C1102       C  0.62470275  0.28573367  0.23831015     0.14100
C1103       C  0.63036956  0.32019463  0.21997858    -0.23600
H1104       H  0.63696948  0.26166425  0.17929080     0.15400
H1105       H  0.60193924  0.24393500  0.32809167     0.15400
C1106       C  0.60944556  0.18532785  0.28755239    -0.23500
H1107       H  0.60703156  0.33547503  0.22335698     0.05600
H1108       H  0.65188221  0.33276690  0.23640276     0.08900
H1109       H  0.63668916  0.31905412  0.18569534     0.08900
H1110       H  0.63291846  0.17036289  0.28342120     0.08800
H1111       H  0.58780385  0.17245816  0.27179227     0.08800
H1112       H  0.60381378  0.18640308  0.32202814     0.05600
C1113       C  0.64708768  0.24579771  0.02580624    -0.20200
C1114       C  0.61825920  0.22550530  0.03103783    -0.06800
C1115       C  0.58812604  0.23388447  0.00890528     0.14100
C1116       C  0.58829736  0.26287324  0.48268155    -0.20200
C1117       C  0.61728786  0.28288597  0.47708074    -0.06800
C1118       C  0.64739140  0.27445382  0.49929189     0.14100
C1119       C  0.67880624  0.29470410  0.99636847    -0.23600
H1120       H  0.67010303  0.23979441  0.04300962     0.15400
H1121       H  0.56521823  0.26904897  0.46572425     0.15400
C1122       C  0.55612978  0.21328927  0.01230218    -0.23500
H1123       H  0.69910169  0.28518033  0.01763196     0.05600
H1124       H  0.67414121  0.32146904  0.50570799     0.08900
H1125       H  0.68939539  0.29418483  0.46345619     0.08900
H1126       H  0.54634902  0.21432233  0.04523619     0.08800
H1127       H  0.56128892  0.18687211  0.00300284     0.08800
H1128       H  0.53575031  0.22433573  0.49225527     0.05600
C1129       C  0.76883944  0.39519830  0.32691881    -0.20200
C1130       C  0.78627674  0.40377571  0.36439414    -0.06800
C1131       C  0.76738332  0.41188891  0.40117852     0.14100
C1132       C  0.73198892  0.40875868  0.40018368    -0.20200
C1133       C  0.71482649  0.39700717  0.36392368    -0.06800
C1134       C  0.73348868  0.39113760  0.32626581     0.14100
C1135       C  0.71699443  0.37838067  0.28601941    -0.23600
H1136       H  0.78314778  0.38913204  0.29863449     0.15400
H1137       H  0.71773881  0.41387959  0.42881109     0.15400
C1138       C  0.78404009  0.42314302  0.44202117    -0.23500
H1139       H  0.70453851  0.35382673  0.29189998     0.05600
H1140       H  0.69803100  0.39681419  0.27459554     0.08900
H1141       H  0.73571070  0.37457077  0.26022306     0.08900
H1142       H  0.80109509  0.44476188  0.43587175     0.08800
H1143       H  0.79856159  0.40219812  0.45627976     0.08800
H1144       H  0.76509944  0.43125822  0.46591593     0.05600
C1145       C  0.50430132  0.10352807  0.10007749    -0.20200
C1146       C  0.52149058  0.11158095  0.13792076    -0.06800
C1147       C  0.50210200  0.11858280  0.17475131     0.14100
C1148       C  0.96688768  0.12207312  0.17077755    -0.20200
C1149       C  0.95048640  0.11888561  0.13129393    -0.06800
C1150       C  0.96926284  0.10694873  0.09614830     0.15300
C1151       C  0.95274423  0.09868612  0.05412577    -0.23600
H1152       H  0.51876835  0.09662479  0.07222799     0.15400
H1153       H  0.95243488  0.13003235  0.19819849     0.15400
C1154       C  0.51823703  0.12427721  0.21764732    -0.23500
H1155       H  0.97075513  0.08637324  0.03201706     0.05600
H1156       H  0.94371224  0.12187555  0.03843521     0.08900
H1157       H  0.93122458  0.08115502  0.05908041     0.08900
H1158       H  0.53436354  0.14712501  0.21716247     0.08800
H1159       H  0.53368499  0.10208850  0.22643425     0.08800
H1160       H  0.49897076  0.12796179  0.24282506     0.05600
C1161       C  0.84469540  0.26714084  0.01202390    -0.20200
C1162       C  0.87004635  0.24300705  0.01869244    -0.06800
C1163       C  0.90080855  0.24601776  0.49639681     0.14100
C1164       C  0.90583705  0.27370472  0.46972448    -0.20200
C1165       C  0.88096541  0.29849731  0.46455286    -0.06800
C1166       C  0.84970236  0.29502175  0.48613527     0.14100
C1167       C  0.82101540  0.31971350  0.48095914    -0.23600
H1168       H  0.82063601  0.26463292  0.02814394     0.15400
H1169       H  0.92957131  0.27604795  0.45281203     0.15400
C1170       C  0.93002357  0.22182245  0.00218496    -0.23500
H1171       H  0.79782771  0.31125162  0.99702622     0.05600
H1172       H  0.81352703  0.32133484  0.44703109     0.08900
H1173       H  0.82887036  0.34481153  0.49293041     0.08900
H1174       H  0.92154235  0.19639283  0.99214555     0.08800
H1175       H  0.93869779  0.22140211  0.03572374     0.08800
H1176       H  0.95087669  0.22699905  0.47970977     0.05600
C1177       C  0.90363737  0.27632506  0.26235864    -0.20200
C1178       C  0.88041162  0.30278091  0.26572272    -0.06800
C1179       C  0.84993124  0.30144857  0.24190406     0.14100
C1180       C  0.84350914  0.27350960  0.21578089    -0.20200
C1181       C  0.86643562  0.24667043  0.21308541    -0.06800
C1182       C  0.89724489  0.24838947  0.23634669     0.14100
C1183       C  0.92403820  0.22149060  0.23350302    -0.23600
H1184       H  0.92697789  0.27739317  0.28058140     0.15400
H1185       H  0.82012623  0.27245979  0.19766535     0.15400
C1186       C  0.82336963  0.32853126  0.24496592    -0.23500
H1187       H  0.94691254  0.22794898  0.25253471     0.05600
H1188       H  0.93216380  0.21825492  0.20004582     0.08900
H1189       H  0.91400470  0.19742820  0.24589240     0.08900
H1190       H  0.83387823  0.35273754  0.23366311     0.08800
H1191       H  0.81482288  0.33121309  0.27833174     0.08800
H1192       H  0.80073509  0.32264572  0.22521092     0.05600
C1193       C  0.03681892  0.53624732  0.03065723    -0.20200
C1194       C  0.51257730  0.52695315  0.06138396    -0.06800
C1195       C  0.48625620  0.50508288  0.04908990     0.14100
C1196       C  0.48589401  0.49219739  0.50781719    -0.20200
C1197       C  0.50904584  0.50219557  0.47585616    -0.06800
C1198       C  0.03550051  0.52452357  0.48829802     0.14100
C1199       C  0.06353480  0.53505209  0.45881335    -0.23600
H1200       H  0.05689895  0.55332507  0.04021137     0.15400
H1201       H  0.46751100  0.47275232  0.50201805     0.15400
C1202       C  0.45838831  0.49551915  0.07944107    -0.23500
H1203       H  0.08375700  0.54911918  0.47593928     0.05600
H1204       H  0.05365635  0.55213041  0.43415231     0.08900
H1205       H  0.57569819  0.51266582  0.44467603     0.08900
H1206       H  0.94610193  0.51859591  0.09161080     0.08800
H1207       H  0.46882567  0.48071149  0.10610948     0.08800
H1208       H  0.43852291  0.47994661  0.06381506     0.05600
C1209       C  0.52697033  0.49841544  0.23323890    -0.20200
C1210       C  0.51260343  0.53041409  0.22720164    -0.06800
C1211       C  0.00230527  0.54813407  0.26403475     0.14100
C1212       C  0.00180519  0.53192319  0.30345219    -0.20200
C1213       C  0.51623019  0.50040540  0.31000706    -0.06800
C1214       C  0.53078962  0.48426684  0.27404801     0.14100
C1215       C  0.55324612  0.45388431  0.27747071    -0.23600
H1216       H  0.53784876  0.48519677  0.20656391     0.15400
H1217       H  0.99071886  0.54515426  0.33004956     0.15400
C1218       C  0.99240622  0.58481944  0.26501491    -0.23500
H1219       H  0.57687408  0.45808684  0.25920392     0.05600
H1220       H  0.54003296  0.43151225  0.26423926     0.08900
H1221       H  0.56149135  0.44917109  0.31043625     0.08900
H1222       H  0.96496620  0.58709388  0.27207955     0.08800
H1223       H  0.99810793  0.59872684  0.23572771     0.08800
H1224       H  0.00690356  0.59787923  0.29050407     0.05600
C1225       C  0.00824163  0.48336008  0.93159770     0.86600
C1226       C  0.53530372  0.45587321  0.93087421    -0.53600
C1227       C  0.53594464  0.43712032  0.89458765     0.09500
C1228       C  0.50868264  0.44709438  0.86193176     0.20500
C1229       C  0.51417021  0.50382586  0.89098352    -0.54400
C1230       C  0.51459870  0.48502435  0.85383918     0.09600
C1231       C  0.97466625  0.46513038  0.92123564    -0.53900
C1232       C  0.97517541  0.44550342  0.88590151     0.10200
H1233       H  0.55272492  0.45167353  0.95708919     0.14700
H1234       H  0.50815107  0.43112784  0.83304635     0.00500
H1235       H  0.01631856  0.53085568  0.89077101     0.15000
H1236       H  0.95145484  0.46788317  0.93899560     0.14800
C1237       C  0.51134140  0.54689179  0.68274908     0.86600
C1238       C  0.97773547  0.56484743  0.67390079    -0.53600
C1239       C  0.97702920  0.58362674  0.63790985     0.09500
C1240       C  0.50948484  0.58086282  0.61156546     0.20500
C1241       C  0.51548370  0.52490646  0.64218843    -0.54400
C1242       C  0.51393382  0.54281531  0.60481922     0.09600
C1243       C  0.53911046  0.57353877  0.67866056    -0.53900
C1244       C  0.53854409  0.59112112  0.64170006     0.10200
H1245       H  0.95650612  0.56383453  0.69566724     0.14700
H1246       H  0.50861079  0.59550267  0.58168062     0.00500
H1247       H  0.51807035  0.49784749  0.64244223     0.15000
H1248       H  0.55802084  0.57781976  0.70326790     0.14800
O1249       O  0.89618188  0.13695219  0.65802471    -0.57700
C1250       C  0.79706591  0.12175790  0.60670661     0.74900
O1251       O  0.83829861  0.22255953  0.65215030    -0.58900
C1252       C  0.91532878  0.13242812  0.62631457     0.74900
C1253       C  0.86299336  0.21587619  0.55003022     0.77300
Cd1254     Cd  0.85276872  0.16887090  0.61789673     1.37500
O1255       O  0.81924671  0.12793187  0.57909952    -0.57700
O1256       O  0.88470767  0.19390122  0.55954604    -0.56500
C1257       C  0.85852631  0.21886873  0.68302796     0.77300
O1258       O  0.83531206  0.21441411  0.57016999    -0.58900
O1259       O  0.79932363  0.13845244  0.64084232    -0.57300
O1260       O  0.90406553  0.14262426  0.59106210    -0.57300
O1261       O  0.87243081  0.19044265  0.68615655    -0.56500
O1262       O  0.84084791  0.39713366  0.83120202    -0.57700
C1263       C  0.94656206  0.42285572  0.87587481     0.74900
O1264       O  0.90929241  0.32302753  0.90438453    -0.58900
C1265       C  0.82341917  0.39845316  0.86489301     0.74900
C1266       C  0.88718179  0.32936595  0.79723660     0.77300
Cd1267     Cd  0.89185998  0.37463734  0.86687059     1.37500
O1268       O  0.91977483  0.42367932  0.89749407    -0.57700
O1269       O  0.87485630  0.35865031  0.79487792    -0.56500
C1270       C  0.88751995  0.32584186  0.93354152     0.77300
O1271       O  0.90467826  0.32284671  0.82992064    -0.58900
O1272       O  0.94789445  0.40056746  0.84735954    -0.57300
O1273       O  0.83905455  0.39234937  0.89901790    -0.57300
O1274       O  0.87081276  0.35280306  0.93395220    -0.56500
O1275       O  0.57690059  0.12387133  0.66689908    -0.57700
C1276       C  0.68068677  0.10180685  0.61595243     0.74900
O1277       O  0.64900777  0.18811788  0.57641582    -0.58900
C1278       C  0.55838094  0.11917384  0.63450245     0.74900
C1279       C  0.62742854  0.19710713  0.69463025     0.77300
Cd1280     Cd  0.62501958  0.14821824  0.62752021     1.37500
O1281       O  0.65535513  0.10271411  0.59133154    -0.57700
O1282       O  0.61438919  0.16841616  0.70015395    -0.56500
C1283       C  0.62091252  0.19753237  0.56114437     0.77300
O1284       O  0.64191537  0.20162365  0.65943945    -0.58900
O1285       O  0.67931752  0.12046089  0.64843801    -0.57300
O1286       O  0.57255347  0.12373780  0.59898605    -0.57300
O1287       O  0.59509441  0.18224567  0.57464187    -0.56500
O1288       O  0.65867749  0.38330704  0.83723109    -0.57700
C1289       C  0.56115940  0.41016784  0.88819307     0.74900
O1290       O  0.59617416  0.30416635  0.84671607    -0.58900
C1291       C  0.67862059  0.38659824  0.86850403     0.74900
C1292       C  0.61478837  0.31022976  0.94586044     0.77300
Cd1293     Cd  0.61210975  0.35829210  0.87812348     1.37500
O1294       O  0.58458278  0.40524535  0.91483846    -0.57700
O1295       O  0.64063438  0.32629425  0.93381827    -0.56500
C1296       C  0.61055635  0.30882531  0.81146796     0.77300
O1297       O  0.58703201  0.31834951  0.92838373    -0.58900
O1298       O  0.56083140  0.39099925  0.85610346    -0.57300
O1299       O  0.66654293  0.37943704  0.90451393    -0.57300
O1300       O  0.62253252  0.33788501  0.80556457    -0.56500
C1301       C  0.75322914  0.98270999  0.80940016     0.86600
C1302       C  0.71915377  0.96555946  0.81802014    -0.53600
C1303       C  0.71815130  0.94694470  0.85411857     0.09500
C1304       C  0.75107157  0.94851267  0.88043247     0.20500
C1305       C  0.75869196  0.00437110  0.85024275    -0.54400
C1306       C  0.75736969  0.98645655  0.88781002     0.09600
C1307       C  0.78013722  0.95523758  0.81315038    -0.53900
C1308       C  0.77932342  0.93730398  0.84982824     0.10200
H1309       H  0.69790664  0.96688688  0.79607407     0.14700
H1310       H  0.74961678  0.93342455  0.90984911     0.00500
H1311       H  0.76191828  0.03136578  0.85004218     0.15000
H1312       H  0.79862904  0.95057680  0.78837603     0.14800
C1313       C  0.74726081  0.04792219  0.55956546     0.86600
C1314       C  0.77210585  0.07722496  0.56217292    -0.53600
C1315       C  0.77129885  0.09527994  0.59885772     0.09500
C1316       C  0.74453064  0.08253938  0.63063494     0.20500
C1317       C  0.75527369  0.02712511  0.60020484    -0.54400
C1318       C  0.75361357  0.04516391  0.63794757     0.09600
C1319       C  0.71225117  0.06256860  0.56943295    -0.53900
C1320       C  0.71086914  0.08145977  0.60556082     0.10200
H1321       H  0.78987920  0.08256202  0.53681926     0.14700
H1322       H  0.74269526  0.09795259  0.65988518     0.00500
H1323       H  0.76060189  0.00048346  0.59959241     0.15000
H1324       H  0.69063177  0.05946655  0.54832421     0.14800
O1325       O  0.84550580  0.62690196  0.58125585    -0.57700
C1326       C  0.94850106  0.60653741  0.62902755     0.74900
O1327       O  0.90859706  0.70742368  0.58595635    -0.58900
C1328       C  0.82650355  0.62584504  0.61351888     0.74900
C1329       C  0.88913042  0.70326882  0.68529077     0.77300
Cd1330     Cd  0.89347523  0.65413284  0.61866878     1.37500
O1331       O  0.92593209  0.61168456  0.65650155    -0.57700
O1332       O  0.86832181  0.67919654  0.68190795    -0.56500
C1333       C  0.89052532  0.70354608  0.55312093     0.77300
O1334       O  0.91359616  0.70302769  0.65950961    -0.58900
O1335       O  0.94557701  0.62273476  0.59485084    -0.57300
O1336       O  0.84009853  0.63426122  0.64842062    -0.57300
O1337       O  0.87662884  0.67503721  0.54848704    -0.56500
O1338       O  0.90397396  0.88872924  0.91060198    -0.57700
C1339       C  0.80474875  0.91079073  0.85842409     0.74900
O1340       O  0.83694223  0.81353944  0.82768093    -0.58900
C1341       C  0.92359743  0.89098405  0.87904831     0.74900
C1342       C  0.85967001  0.81233966  0.93867898     0.77300
Cd1343     Cd  0.85762990  0.86075404  0.87135942     1.37500
O1344       O  0.82743081  0.90403680  0.83165420    -0.57700
O1345       O  0.87473804  0.84034550  0.94181407    -0.56500
C1346       C  0.86329833  0.81122478  0.80516466     0.77300
O1347       O  0.84071551  0.80859692  0.90657575    -0.58900
O1348       O  0.80569347  0.89409322  0.89242872    -0.57300
O1349       O  0.91139508  0.88202185  0.84353943    -0.57300
O1350       O  0.88575972  0.83336029  0.81172651    -0.56500
O1351       O  0.66851298  0.64305699  0.65128986    -0.57700
C1352       C  0.56444805  0.61690767  0.63256470     0.74900
O1353       O  0.59277586  0.70576399  0.67100931    -0.58900
C1354       C  0.68222609  0.63366055  0.61706942     0.74900
C1355       C  0.61347959  0.71370605  0.55030848     0.77300
Cd1356     Cd  0.61703794  0.66650796  0.61887698     1.37500
O1357       O  0.58622947  0.62505617  0.66021467    -0.57700
O1358       O  0.62790591  0.68555890  0.54555480    -0.56500
C1359       C  0.62079607  0.71866677  0.68208951     0.77300
O1360       O  0.59797072  0.71804574  0.58481309    -0.58900
O1361       O  0.56650540  0.63172234  0.59725482    -0.57300
O1362       O  0.66454359  0.63730938  0.58377246    -0.57300
O1363       O  0.64697328  0.70587803  0.66559267    -0.56500
O1364       O  0.58668657  0.89986337  0.91018194    -0.57700
C1365       C  0.68908970  0.92475885  0.86332846     0.74900
O1366       O  0.65200126  0.82163566  0.90131809    -0.58900
C1367       C  0.56804169  0.90274535  0.87752605     0.74900
C1368       C  0.63439051  0.82926834  0.80156610     0.77300
Cd1369     Cd  0.63525633  0.87579065  0.87149470     1.37500
O1370       O  0.66393683  0.92325433  0.83852228    -0.57700
O1371       O  0.60872341  0.84662230  0.81120381    -0.56500
C1372       C  0.63512508  0.82430389  0.93508683     0.77300
O1373       O  0.66104382  0.83554306  0.82250715    -0.58900
O1374       O  0.68852565  0.90517412  0.89473886    -0.57300
O1375       O  0.58202875  0.89674182  0.84227780    -0.57300
O1376       O  0.62077242  0.85230747  0.94131353    -0.56500
C1377       C  0.64629373  0.74153634  0.49370741    -0.20200
C1378       C  0.61698491  0.74102420  0.51882983    -0.06800
C1379       C  0.59381959  0.76804009  0.51604039     0.14100
C1380       C  0.60097244  0.79508857  0.98923775    -0.20200
C1381       C  0.63045483  0.79568820  0.96444977    -0.06800
C1382       C  0.65322836  0.76828908  0.96664067     0.14100
C1383       C  0.68585418  0.76754089  0.94188604    -0.23600
H1384       H  0.66429377  0.72111560  0.49619229     0.15400
H1385       H  0.58314415  0.81567654  0.98701291     0.15400
C1386       C  0.56118165  0.76866806  0.54078003    -0.23500
H1387       H  0.70149793  0.74528384  0.94988932     0.05600
H1388       H  0.70110408  0.79030912  0.94926243     0.08900
H1389       H  0.68038175  0.76628419  0.90736008     0.08900
H1390       H  0.56659007  0.77088972  0.57524289     0.08800
H1391       H  0.54643014  0.74542365  0.53427437     0.08800
H1392       H  0.54506494  0.79039255  0.53195392     0.05600
C1393       C  0.60084586  0.79595504  0.74957142    -0.20200
C1394       C  0.63238509  0.80213073  0.76907380    -0.06800
C1395       C  0.66006355  0.78086798  0.75914527     0.14100
C1396       C  0.65515904  0.75408445  0.73072218    -0.20200
C1397       C  0.62341952  0.74736947  0.71219624    -0.06800
C1398       C  0.59587693  0.76889670  0.72154682     0.14100
C1399       C  0.56122901  0.76406977  0.70200350    -0.23600
H1400       H  0.57955748  0.81209711  0.75684332     0.15400
H1401       H  0.67637449  0.73785485  0.72340930     0.15400
C1402       C  0.69483694  0.78556384  0.77841661    -0.23500
H1403       H  0.54327106  0.78402044  0.71196277     0.05600
H1404       H  0.55035374  0.73969122  0.71213470     0.08900
H1405       H  0.56304650  0.76484545  0.66687645     0.08900
H1406       H  0.69364253  0.78228775  0.81333436     0.08800
H1407       H  0.70473517  0.81090766  0.77069327     0.08800
H1408       H  0.71328576  0.76692138  0.76609944     0.05600
C1409       C  0.97552734  0.91533121  0.84738868    -0.20200
C1410       C  0.95956179  0.90154467  0.88304343    -0.06800
C1411       C  0.97932905  0.89410574  0.91940233     0.14100
C1412       C  0.51472015  0.89818545  0.91797492    -0.20200
C1413       C  0.53100336  0.90871593  0.88077941    -0.06800
C1414       C  0.51098406  0.91924736  0.84590223     0.14100
C1415       C  0.52647528  0.93411888  0.80656565    -0.23600
H1416       H  0.96034793  0.92176006  0.81987317     0.15400
H1417       H  0.52987448  0.89044338  0.94494800     0.15400
C1418       C  0.96398615  0.87936252  0.95892051    -0.23500
H1419       H  0.50679870  0.94376801  0.78450026     0.05600
H1420       H  0.54112986  0.91488007  0.78899663     0.08900
H1421       H  0.54324077  0.95545931  0.81548227     0.08900
H1422       H  0.95129268  0.85517338  0.95119579     0.08800
H1423       H  0.94539103  0.89718173  0.97265332     0.08800
H1424       H  0.98342275  0.87430254  0.98364885     0.05600
C1425       C  0.77250629  0.61151622  0.64916298    -0.20200
C1426       C  0.78963692  0.61815192  0.61109277    -0.06800
C1427       C  0.77035809  0.62274648  0.57353426     0.14100
C1428       C  0.73488262  0.62424239  0.57614838    -0.20200
C1429       C  0.71806716  0.62216338  0.61526200    -0.06800
C1430       C  0.73705742  0.61353817  0.65187479     0.14100
C1431       C  0.72058011  0.60714218  0.69416611    -0.23600
H1432       H  0.78707639  0.60681997  0.67774483     0.15400
H1433       H  0.72043689  0.62981028  0.54774097     0.15400
C1434       C  0.78665881  0.62853208  0.53100050    -0.23500
H1435       H  0.73910660  0.59781572  0.71795276     0.05600
H1436       H  0.70045200  0.58781306  0.69050565     0.08900
H1437       H  0.70966830  0.63067036  0.70710726     0.08900
H1438       H  0.80304594  0.60687359  0.52271643     0.08800
H1439       H  0.80188624  0.65199240  0.53185795     0.08800
H1440       H  0.76754544  0.63121898  0.50528058     0.05600
C1441       C  0.85458841  0.72979598  0.99937991    -0.20200
C1442       C  0.88387571  0.73143084  0.52322496    -0.06800
C1443       C  0.90493507  0.76017903  0.52041744     0.14100
C1444       C  0.89552791  0.78642277  0.49330321    -0.20200
C1445       C  0.86601627  0.78483837  0.96938792    -0.06800
C1446       C  0.84505105  0.75601853  0.97232445     0.14100
C1447       C  0.81224003  0.75268286  0.94793347    -0.23600
H1448       H  0.83824410  0.70799257  0.00185178     0.15400
H1449       H  0.91209731  0.80803606  0.49061972     0.15400
C1450       C  0.93769566  0.76336755  0.54499238    -0.23500
H1451       H  0.79818068  0.72953310  0.95658447     0.05600
H1452       H  0.81735254  0.75125547  0.91338819     0.08900
H1453       H  0.79561436  0.77444469  0.95498290     0.08900
H1454       H  0.95430363  0.74159052  0.53795609     0.08800
H1455       H  0.93246623  0.76468307  0.57952168     0.08800
H1456       H  0.95182056  0.78652699  0.53655113     0.05600
C1457       C  0.85134172  0.73386715  0.73448535    -0.20200
C1458       C  0.88371430  0.73077545  0.71646632    -0.06800
C1459       C  0.90902515  0.75455996  0.72742964     0.14100
C1460       C  0.90113273  0.78055920  0.75586197    -0.20200
C1461       C  0.86873617  0.78368326  0.77391978    -0.06800
C1462       C  0.84344840  0.75981044  0.76298702     0.14100
C1463       C  0.80801939  0.76122121  0.78070680    -0.23600
H1464       H  0.83175022  0.71595125  0.72588437     0.15400
H1465       H  0.92075099  0.79847585  0.76433940     0.15400
C1466       C  0.94458061  0.75268496  0.71017530    -0.23500
H1467       H  0.79156432  0.74105888  0.76742321     0.05600
H1468       H  0.79611247  0.78563228  0.77274526     0.08900
H1469       H  0.80876743  0.75785911  0.81563489     0.08900
H1470       H  0.94425923  0.75643751  0.67531276     0.08800
H1471       H  0.95590567  0.72794024  0.71783483     0.08800
H1472       H  0.96128314  0.77238706  0.72407157     0.05600
C1473       C  0.74048889  0.03301683  0.93730154    -0.20200
C1474       C  0.75738287  0.00242925  0.93149871    -0.06800
C1475       C  0.77233578  0.98739716  0.96781076     0.14100
C1476       C  0.76676612  0.00117393  0.50858065    -0.20200
C1477       C  0.74936177  0.03167475  0.51473897    -0.06800
C1478       C  0.73792537  0.04871914  0.47733049     0.14100
C1479       C  0.72416706  0.08414632  0.47669232    -0.23600
H1480       H  0.72940785  0.04540778  0.91005176     0.15400
H1481       H  0.77857661  0.98888357  0.53526404     0.15400
C1482       C  0.79692875  0.95867156  0.96474878    -0.23500
H1483       H  0.73911862  0.09922934  0.95306899     0.05600
H1484       H  0.72669004  0.09806771  0.50684174     0.08900
H1485       H  0.69704152  0.08363794  0.46722744     0.08900
H1486       H  0.80495384  0.95373851  0.93178729     0.08800
H1487       H  0.78556309  0.93569901  0.97856244     0.08800
H1488       H  0.82040432  0.96502717  0.98264844     0.05600
C1489       C  0.76667310  0.03170187  0.75878019    -0.20200
C1490       C  0.75422437  0.99886579  0.76458534    -0.06800
C1491       C  0.74474797  0.98055537  0.72705897     0.14100
C1492       C  0.74415831  0.99664225  0.68736751    -0.20200
C1493       C  0.75637875  0.02940822  0.68167390    -0.06800
C1494       C  0.76954211  0.04630383  0.71811585     0.14100
C1495       C  0.78967338  0.07830507  0.71531113    -0.23600
H1496       H  0.77658155  0.04562036  0.78558756     0.15400
H1497       H  0.73429651  0.98284337  0.66029536     0.15400
C1498       C  0.73540079  0.94369129  0.72614025    -0.23500
H1499       H  0.81317416  0.07615689  0.73461601     0.05600
H1500       H  0.77452736  0.09967499  0.72758723     0.08900
H1501       H  0.79818788  0.08318472  0.68261028     0.08900
H1502       H  0.70848209  0.94083493  0.71636855     0.08800
H1503       H  0.73915084  0.93035692  0.75633526     0.08800
H1504       H  0.75150898  0.93051526  0.70255162     0.05600
C1505       C  0.63033195  0.25779343  0.71173777    -0.20200
C1506       C  0.62438963  0.22489153  0.72596926    -0.06800
C1507       C  0.61393014  0.21996736  0.76837751     0.14100
C1508       C  0.60910338  0.24798527  0.79479407    -0.20200
C1509       C  0.61461347  0.28092813  0.78042236    -0.06800
C1510       C  0.62568540  0.28580830  0.73820997     0.14100
C1511       C  0.63225851  0.32023750  0.72025012    -0.23600
H1512       H  0.63820144  0.26179063  0.67924861     0.15400
H1513       H  0.60131206  0.24396790  0.82730554     0.15400
C1514       C  0.60832219  0.18546154  0.78658693    -0.23500
H1515       H  0.60912797  0.33589304  0.72306169     0.05600
H1516       H  0.65368027  0.33238750  0.73735696     0.08900
H1517       H  0.63917535  0.31911938  0.68614959     0.08900
H1518       H  0.63159580  0.17013836  0.78280444     0.08800
H1519       H  0.58664940  0.17298843  0.77038759     0.08800
H1520       H  0.60232067  0.18651383  0.82096395     0.05600
C1521       C  0.64761879  0.24613380  0.52556328    -0.20200
C1522       C  0.61869408  0.22597955  0.53090602    -0.06800
C1523       C  0.58846876  0.23467779  0.50916190     0.14100
C1524       C  0.58789189  0.26204071  0.98232143    -0.20200
C1525       C  0.61676749  0.28228235  0.97694362    -0.06800
C1526       C  0.64683088  0.27402694  0.99937734     0.14100
C1527       C  0.67939216  0.29509573  0.49628678    -0.23600
H1528       H  0.67069091  0.23994635  0.54253417     0.15400
H1529       H  0.56486296  0.26801398  0.96513997     0.15400
C1530       C  0.55625361  0.21446545  0.51294372    -0.23500
H1531       H  0.69966466  0.28555305  0.51757158     0.05600
H1532       H  0.67353911  0.32106805  0.00581198     0.08900
H1533       H  0.68879139  0.29380247  0.96352591     0.08900
H1534       H  0.54684924  0.21547001  0.54605485     0.08800
H1535       H  0.56096294  0.18803386  0.50333559     0.08800
H1536       H  0.53573719  0.22280556  0.99117841     0.05600
C1537       C  0.76865223  0.39451430  0.82669153    -0.20200
C1538       C  0.78614176  0.40328858  0.86405547    -0.06800
C1539       C  0.76730250  0.41152881  0.90083847     0.14100
C1540       C  0.73190804  0.40838813  0.89994663    -0.20200
C1541       C  0.71470010  0.39648522  0.86380618    -0.06800
C1542       C  0.73330797  0.39041229  0.82616119     0.14100
C1543       C  0.71676209  0.37735356  0.78610041    -0.23600
H1544       H  0.78291881  0.38833193  0.79841616     0.15400
H1545       H  0.71769037  0.41362894  0.92856530     0.15400
C1546       C  0.78401954  0.42292386  0.94157917    -0.23500
H1547       H  0.70429412  0.35286082  0.79232546     0.05600
H1548       H  0.69779775  0.39570511  0.77447130     0.08900
H1549       H  0.73544740  0.37331889  0.76032245     0.08900
H1550       H  0.80105639  0.44452765  0.93527444     0.08800
H1551       H  0.79857150  0.40202890  0.95590694     0.08800
H1552       H  0.76511496  0.43110750  0.96548124     0.05600
C1553       C  0.50413671  0.10405021  0.59923629    -0.20200
C1554       C  0.52132374  0.11215502  0.63707114    -0.06800
C1555       C  0.50193841  0.11911919  0.67391622     0.14100
C1556       C  0.96668107  0.12228079  0.67017725    -0.20200
C1557       C  0.95025640  0.11895102  0.63073488    -0.06800
C1558       C  0.96905457  0.10710234  0.59556168     0.15300
C1559       C  0.95252738  0.09877474  0.55356284    -0.23600
H1560       H  0.51860859  0.09720946  0.57136688     0.15400
H1561       H  0.95222043  0.13022437  0.69759975     0.15400
C1562       C  0.51807662  0.12500179  0.71677142    -0.23500
H1563       H  0.97057706  0.08656812  0.53141043     0.05600
H1564       H  0.94334991  0.12192388  0.53790855     0.08900
H1565       H  0.93110404  0.08113317  0.55854578     0.08900
H1566       H  0.53411052  0.14791111  0.71615691     0.08800
H1567       H  0.53361716  0.10290094  0.72565192     0.08800
H1568       H  0.49881615  0.12869036  0.74195545     0.05600
C1569       C  0.84464441  0.26735407  0.51267350    -0.20200
C1570       C  0.86973375  0.24284416  0.51861308    -0.06800
C1571       C  0.90138512  0.24653196  0.99713104     0.14100
C1572       C  0.90632351  0.27407545  0.97018124    -0.20200
C1573       C  0.88116333  0.29846483  0.96426932    -0.06800
C1574       C  0.84971736  0.29472975  0.98533537     0.14100
C1575       C  0.82081163  0.31905641  0.97937879    -0.23600
H1576       H  0.82077791  0.26510049  0.52929203     0.15400
H1577       H  0.93023051  0.27668001  0.95371167     0.15400
C1578       C  0.92899780  0.22067175  0.50025716    -0.23500
H1579       H  0.79819270  0.31212894  0.49907879     0.05600
H1580       H  0.81380942  0.32050268  0.94527647     0.08900
H1581       H  0.82819318  0.34428042  0.99139223     0.08900
H1582       H  0.91970434  0.19546223  0.49044715     0.08800
H1583       H  0.93849104  0.21996113  0.53343588     0.08800
H1584       H  0.95225195  0.22857814  0.98245575     0.05600
C1585       C  0.90379725  0.27675703  0.76139465    -0.20200
C1586       C  0.88048297  0.30311846  0.76495942    -0.06800
C1587       C  0.84985731  0.30164866  0.74144524     0.14100
C1588       C  0.84337711  0.27365570  0.71544029    -0.20200
C1589       C  0.86636127  0.24687553  0.71263114    -0.06800
C1590       C  0.89731445  0.24873830  0.73556867     0.14100
C1591       C  0.92414558  0.22188626  0.73259919    -0.23600
H1592       H  0.92724972  0.27793242  0.77938113     0.15400
H1593       H  0.81988583  0.27249155  0.69755700     0.15400
C1594       C  0.82319228  0.32861290  0.74475921    -0.23500
H1595       H  0.94712771  0.22845710  0.75136438     0.05600
H1596       H  0.93205650  0.21854566  0.69907673     0.08900
H1597       H  0.91424362  0.19784921  0.74522637     0.08900
H1598       H  0.83352457  0.35287052  0.73337821     0.08800
H1599       H  0.81482500  0.33123838  0.77820334     0.08800
H1600       H  0.80046988  0.32263277  0.72520914     0.05600
C1601       C  0.03650564  0.53707233  0.53043158    -0.20200
C1602       C  0.51276980  0.52736206  0.56147275    -0.06800
C1603       C  0.48679571  0.50500447  0.54936622     0.14100
C1604       C  0.48530476  0.49230495  0.00753185    -0.20200
C1605       C  0.50885347  0.50182821  0.97578442    -0.06800
C1606       C  0.03575835  0.52374572  0.98851429     0.14100
C1607       C  0.06419514  0.53365871  0.95927391    -0.23600
H1608       H  0.05621047  0.55464876  0.53976242     0.15400
H1609       H  0.46653918  0.47326080  0.00161277     0.15400
C1610       C  0.45920581  0.49494892  0.57986076    -0.23500
H1611       H  0.08448637  0.54755203  0.97649758     0.05600
H1612       H  0.05478166  0.55068111  0.93427269     0.08900
H1613       H  0.57600210  0.51119504  0.94530805     0.08900
H1614       H  0.94674600  0.51708118  0.59239520     0.08800
H1615       H  0.46994475  0.48013829  0.60633116     0.08800
H1616       H  0.43947575  0.47918673  0.56426795     0.05600
C1617       C  0.52697625  0.49867130  0.73323847    -0.20200
C1618       C  0.51260215  0.53068647  0.72730492    -0.06800
C1619       C  0.00240293  0.54842044  0.76417112     0.14100
C1620       C  0.00192968  0.53215849  0.80357359    -0.20200
C1621       C  0.51614987  0.50041653  0.80999760    -0.06800
C1622       C  0.53073265  0.48438623  0.77398254     0.14100
C1623       C  0.55313658  0.45395445  0.77728121    -0.23600
H1624       H  0.53791085  0.48553072  0.70654219     0.15400
H1625       H  0.99089412  0.54537248  0.83021819     0.15400
C1626       C  0.99254631  0.58511320  0.76522093    -0.23500
H1627       H  0.57680533  0.45819729  0.75911248     0.05600
H1628       H  0.53991178  0.43165915  0.76385958     0.08900
H1629       H  0.56131162  0.44907621  0.81023682     0.08900
H1630       H  0.96512499  0.58741448  0.77238199     0.08800
H1631       H  0.99819830  0.59902692  0.73592337     0.08800
H1632       H  0.00711639  0.59813982  0.79067215     0.05600
loop_ 
_geom_bond_atom_site_label_1 
_geom_bond_atom_site_label_2 
_geom_bond_distance 
_geom_bond_site_symmetry_2 
_ccdc_geom_bond_type 
C1            C7   1.543       .  S
C1          C818   1.533       .  S
C1          C821   1.550       .  S
C1         C1197   1.562       .  S
C2          C817   1.533       .  S
C2            H9   1.087       .  S
C2            C3   1.364       .  D
C3            C4   1.540       .  S
C3           C65   1.479       .  S
C4            C6   1.550       .  S
C4          C824   1.534   1_455  S
C4           H10   1.108       .  S
C5          C817   1.550       .  S
C5          H827   1.080       .  S
C5            C6   1.387       .  D
C6          C397   1.516       .  S
C7           H12   1.082       .  S
C7            C8   1.358       .  D
C8          C820   1.534       .  S
C8           C39   1.476       .  S
H11         C821   1.080       .  S
C13          C19   1.530       .  S
C13          C17   1.555       .  S
C13         C830   1.535   1_455  S
C13         C394   1.549       .  S
C14         C829   1.535       .  S
C14          H21   1.086       .  S
C14          C15   1.362       .  D
C15         C832   1.540       .  S
C15         C102   1.477       .  S
C16          C20   1.539       .  S
C16          C18   1.540       .  S
C16         C831   1.540   1_455  S
C16          H22   1.111       .  S
C17          H23   1.083       .  S
C17          C18   1.381       .  D
C18         C378   1.495       .  S
C19          H24   1.087       .  S
C19          C20   1.362       .  D
C20         C128   1.478       .  S
O25          C28   1.268       .  A
O25         Cd30   2.486       .  S
C26          C91   1.482       .  S
C26          O35   1.265       .  A
C26          O31   1.262       .  A
O27          C33   1.266       .  A
O27         Cd30   2.461       .  S
C28          O36   1.264       .  A
C28         C333   1.487       .  S
C29          O34   1.267       .  A
C29          O32   1.263       .  A
C29         C346   1.490       .  S
Cd30         O37   2.435       .  S
Cd30         O36   2.434       .  S
Cd30         O35   2.539       .  S
Cd30         O31   2.422       .  S
Cd30         O34   2.462       .  S
Cd30         O32   2.450       .  S
C33          O37   1.263       .  A
C33         C365   1.482       .  S
O38          C41   1.269       .  A
O38         Cd43   2.474       .  S
C39          O48   1.262       .  A
C39          O44   1.261       .  A
O40          C46   1.266       .  A
O40         Cd43   2.474       .  S
C41          O49   1.263       .  A
C41         C314   1.485       .  S
C42          O47   1.266       .  A
C42          O45   1.267       .  A
C42         C362   1.478       .  S
Cd43         O50   2.436       .  S
Cd43         O49   2.425       .  S
Cd43         O48   2.520       .  S
Cd43         O44   2.434       .  S
Cd43         O47   2.421       .  S
Cd43         O45   2.446       .  S
C46          O50   1.261       .  A
C46         C349   1.484       .  S
O51          C54   1.266       .  A
O51         Cd56   2.474       .  S
C52          C96   1.479       .  S
C52          O61   1.264       .  A
C52          O57   1.264       .  A
O53          C59   1.265       .  A
O53         Cd56   2.462       .  S
C54          O62   1.267       .  A
C54         C330   1.491       .  S
C55          O60   1.264       .  A
C55          O58   1.265       .  A
C55         C282   1.484       .  S
Cd56         O63   2.456       .  S
Cd56         O62   2.450       .  S
Cd56         O61   2.500       .  S
Cd56         O57   2.455       .  S
Cd56         O60   2.439       .  S
Cd56         O58   2.462       .  S
C59          O63   1.263       .  A
C59         C298   1.487       .  S
O64          C67   1.265       .  A
O64         Cd69   2.464       .  S
C65          O74   1.264       .  A
C65          O70   1.263       .  A
O66          C72   1.264       .  A
O66         Cd69   2.451       .  S
C67          O75   1.267       .  A
C67         C317   1.486       .  S
C68          O73   1.267       .  A
C68          O71   1.264       .  A
C68         C301   1.488       .  S
Cd69         O76   2.459       .  S
Cd69         O75   2.446       .  S
Cd69         O74   2.507       .  S
Cd69         O70   2.454       .  S
Cd69         O73   2.457       .  S
Cd69         O71   2.448       .  S
C72          O76   1.264       .  A
C72         C285   1.486       .  S
C77          C78   1.533       .  S
C77          C83   1.531       .  S
C77          C81   1.560   1_565  S
C77         C266   1.555       .  S
C78          H85   1.086       .  S
C78          C79   1.362       .  D
C79          C80   1.540       .  S
C79         C141   1.477       .  S
C80          C84   1.543       .  S
C80          C82   1.547       .  S
C80          H86   1.109       .  S
C81          H87   1.083       .  S
C81          C82   1.387   1_545  D
C82         C250   1.514   1_565  S
C83          H88   1.087       .  S
C83          C84   1.362       .  D
C84         C115   1.483       .  S
C89          C90   1.525       .  S
C89          C95   1.534       .  S
C89          C93   1.561       .  S
C89         C253   1.554       .  S
C90          H97   1.087       .  S
C90          C91   1.359       .  D
C91          C92   1.545       .  S
C92          C96   1.543       .  S
C92          C94   1.550       .  S
C92          H98   1.108       .  S
C93          H99   1.082       .  S
C93          C94   1.388       .  D
C94         C269   1.520       .  S
C95         H100   1.086       .  S
C95          C96   1.363       .  D
O101        C104   1.267       .  A
O101       Cd106   2.471       .  S
C102        O111   1.263       .  A
C102        O107   1.261       .  A
O103        C109   1.263       .  A
O103       Cd106   2.440       .  S
C104        O112   1.265       .  A
C104        C202   1.488       .  S
C105        O110   1.265       .  A
C105        O108   1.265       .  A
C105        C234   1.484       .  S
Cd106       O113   2.456       .  S
Cd106       O112   2.445       .  S
Cd106       O111   2.523       .  S
Cd106       O107   2.435       .  S
Cd106       O110   2.457       .  S
Cd106       O108   2.437       .  S
C109        O113   1.268       .  A
C109        C218   1.484       .  S
O114        C117   1.267       .  A
O114       Cd119   2.465       .  S
C115        O124   1.265       .  A
C115        O120   1.261       .  A
O116        C122   1.265       .  A
O116       Cd119   2.458       .  S
C117        O125   1.266       .  A
C117        C186   1.484       .  S
C118        O123   1.264       .  A
C118        O121   1.266       .  A
C118        C221   1.486       .  S
Cd119       O126   2.441       .  S
Cd119       O125   2.448       .  S
Cd119       O124   2.532       .  S
Cd119       O120   2.443       .  S
Cd119       O123   2.451       .  S
Cd119       O121   2.459       .  S
C122        O126   1.265       .  A
C122        C237   1.487       .  S
O127        C130   1.264       .  A
O127       Cd132   2.460       .  S
C128        O137   1.265       .  A
C128        O133   1.262       .  A
O129        C135   1.266       .  A
O129       Cd132   2.463       .  S
C130        O138   1.267       .  A
C130        C205   1.489       .  S
C131        O136   1.262       .  A
C131        O134   1.267       .  A
C131        C154   1.483       .  S
Cd132       O139   2.442       .  S
Cd132       O138   2.471       .  S
Cd132       O137   2.517       .  S
Cd132       O133   2.433       .  S
Cd132       O136   2.440       .  S
Cd132       O134   2.476       .  S
C135        O139   1.265       .  A
C135        C173   1.485       .  S
O140        C143   1.269       .  A
O140       Cd145   2.470       .  S
C141        O150   1.264       .  A
C141        O146   1.262       .  A
O142        C148   1.262       .  A
O142       Cd145   2.447       .  S
C143        O151   1.265       .  A
C143        C189   1.486       .  S
C144        O149   1.263       .  A
C144        O147   1.265       .  A
C144        C170   1.487       .  S
Cd145       O152   2.465       .  S
Cd145       O151   2.440       .  S
Cd145       O150   2.510       .  S
Cd145       O146   2.442       .  S
Cd145       O149   2.446       .  S
Cd145       O147   2.454       .  S
C148        O152   1.267       .  A
C148        C157   1.484       .  S
C153        C154   1.405   1_556  A
C153        C566   1.404       .  A
C153        H160   1.084       .  S
C154        C155   1.417       .  A
C155        C162   1.509       .  S
C155        C564   1.403   1_554  A
C156        C157   1.405       .  A
C156        C563   1.403       .  A
C156        H161   1.084       .  S
C157        C158   1.418       .  A
C158        C159   1.509       .  S
C158        C561   1.404       .  A
C159        H163   1.111       .  S
C159        H164   1.110       .  S
C159        H165   1.110       .  S
C162        H166   1.109       .  S
C162        H167   1.110       .  S
C162        H168   1.111       .  S
C169        C170   1.407       .  A
C169        C174   1.403       .  A
C169        H176   1.084       .  S
C170        C171   1.419       .  A
C171        C178   1.509       .  S
C171        C172   1.402       .  A
C172        C173   1.404       .  A
C172        H177   1.084       .  S
C173        C174   1.417       .  A
C174        C175   1.509       .  S
C175        H179   1.111       .  S
C175        H180   1.110       .  S
C175        H181   1.110       .  S
C178        H182   1.110       .  S
C178        H183   1.110       .  S
C178        H184   1.111       .  S
C185        C186   1.404       .  A
C185       C1006   1.405       .  A
C185        H192   1.084       .  S
C186        C187   1.417       .  A
C187        C194   1.509       .  S
C187       C1004   1.404       .  A
C188        C189   1.405       .  A
C188       C1003   1.404   1_455  A
C188        H193   1.084       .  S
C189        C190   1.417       .  A
C190        C191   1.508       .  S
C190       C1001   1.405   1_455  A
C191        H195   1.111       .  S
C191        H196   1.109       .  S
C191        H197   1.110       .  S
C194        H198   1.110       .  S
C194        H199   1.110       .  S
C194        H200   1.111       .  S
C201        C202   1.406       .  A
C201        C206   1.405       .  A
C201        H208   1.084       .  S
C202        C203   1.417       .  A
C203        C210   1.508       .  S
C203        C204   1.404       .  A
C204        C205   1.405       .  A
C204        H209   1.084       .  S
C205        C206   1.418       .  A
C206        C207   1.508       .  S
C207        H211   1.111       .  S
C207        H212   1.110       .  S
C207        H213   1.109       .  S
C210        H214   1.110       .  S
C210        H215   1.110       .  S
C210        H216   1.111       .  S
C217        C222   1.403       .  A
C217        C626   1.405       .  A
C217        H224   1.084       .  S
C218        C219   1.417       .  A
C218        C625   1.405   1_554  A
C219        C226   1.509       .  S
C219        C220   1.404   1_554  A
C220        C629   1.407       .  A
C220        H225   1.084       .  S
C221        C222   1.417       .  A
C221        C628   1.406       .  A
C222        C223   1.509       .  S
C223        H227   1.111       .  S
C223        H228   1.110       .  S
C223        H229   1.110       .  S
C226        H230   1.110       .  S
C226        H231   1.110       .  S
C226        H232   1.111       .  S
C233        C234   1.406       .  A
C233        C238   1.402       .  A
C233        H240   1.084       .  S
C234        C235   1.416       .  A
C235        C242   1.509       .  S
C235        C236   1.403       .  A
C236        C237   1.408       .  A
C236        H241   1.084       .  S
C237        C238   1.417       .  A
C238        C239   1.509       .  S
C239        H243   1.111       .  S
C239        H244   1.110       .  S
C239        H245   1.110       .  S
C242        H246   1.110       .  S
C242        H247   1.110       .  S
C242        H248   1.111       .  S
C249        C250   1.402       .  A
C249        C662   1.408       .  A
C249        H256   1.084       .  S
C250        C251   1.421   1_545  A
C251        C258   1.505       .  S
C251        C660   1.413   1_565  A
C252        C253   1.410       .  A
C252        C659   1.413   1_544  A
C252        H257   1.080   1_545  S
C253        C254   1.435   1_554  A
C254        C255   1.513       .  S
C254        C657   1.408       .  A
C255        H260   1.102   1_556  S
C255        H261   1.110       .  S
C255        H667   1.111       .  S
C258        H262   1.104       .  S
C258        H263   1.110       .  S
C258        H264   1.111       .  S
H259        C663   1.111       .  S
C265        C266   1.409   1_545  A
C265        C270   1.415       .  A
C265        H272   1.080       .  S
C266        C267   1.434       .  A
C267        C274   1.513       .  S
C267        C268   1.408       .  A
C268        C269   1.403   1_565  A
C268        H273   1.083       .  S
C269        C270   1.424       .  A
C270        C271   1.504       .  S
C271        H275   1.111       .  S
C271        H276   1.110       .  S
C271        H277   1.104       .  S
C274        H278   1.110       .  S
C274        H279   1.102       .  S
C274        H280   1.111       .  S
C281        C282   1.407       .  A
C281        C286   1.403       .  A
C281        H288   1.084       .  S
C282        C283   1.415       .  A
C283        C290   1.508       .  S
C283        C284   1.403       .  A
C284        C285   1.407       .  A
C284        H289   1.084       .  S
C285        C286   1.416       .  A
C286        C287   1.509       .  S
C287        H291   1.110       .  S
C287        H292   1.110       .  S
C287        H293   1.111       .  S
C290        H294   1.111       .  S
C290        H295   1.110       .  S
C290        H296   1.111       .  S
C297        C298   1.405       .  A
C297        C710   1.403   1_554  A
C297        H304   1.084       .  S
C298        C299   1.418       .  A
C299        C306   1.509       .  S
C299        C708   1.403   1_554  A
C300        C301   1.406       .  A
C300        C707   1.403       .  A
C300        H305   1.084       .  S
C301        C302   1.419       .  A
C302        C711   1.509       .  S
C302        C705   1.403       .  A
C303        C710   1.509       .  S
C303        H307   1.111   1_556  S
C303        H716   1.110   1_556  S
C303        H717   1.110       .  S
C306        H310   1.110       .  S
C306        H311   1.110       .  S
C306        H720   1.111   1_554  S
H308        C711   1.110       .  S
H309        C711   1.110       .  S
H312        C714   1.111       .  S
C313        C314   1.405       .  A
C313        C318   1.405       .  A
C313        H320   1.084       .  S
C314        C315   1.418       .  A
C315        C322   1.509       .  S
C315        C316   1.402       .  A
C316        C317   1.404       .  A
C316        H321   1.084       .  S
C317        C318   1.419       .  A
C318        C319   1.509       .  S
C319        H323   1.110       .  S
C319        H324   1.110       .  S
C319        H325   1.111       .  S
C322        H326   1.110       .  S
C322        H327   1.109       .  S
C322        H328   1.111       .  S
C329        C330   1.405       .  A
C329       C1150   1.403   1_455  A
C329        H336   1.084       .  S
C330        C331   1.420       .  A
C331        C338   1.508       .  S
C331       C1148   1.407   1_455  A
C332        C333   1.405       .  A
C332       C1147   1.407       .  A
C332        H337   1.084       .  S
C333        C334   1.416       .  A
C334        C335   1.508       .  S
C334       C1145   1.403       .  A
C335        H339   1.111       .  S
C335        H340   1.109       .  S
C335        H341   1.111       .  S
C338        H342   1.110       .  S
C338        H343   1.110       .  S
C338        H344   1.111   1_455  S
C345        C346   1.405       .  A
C345        C758   1.402   1_554  A
C345        H352   1.084       .  S
C346        C755   1.421   1_554  A
C347        C762   1.509       .  S
C347        C348   1.404       .  A
C347        C754   1.421       .  A
C348        C349   1.404       .  A
C348        H353   1.084       .  S
C349        C350   1.419       .  A
C350        C351   1.510       .  S
C350        C753   1.401       .  A
C351        H356   1.111       .  S
C351        H357   1.110       .  S
C351        H763   1.111       .  S
C354        C755   1.509   1_554  S
C354        H358   1.110   1_554  S
C354        H359   1.110       .  S
C354        H768   1.111   1_554  S
H355        C759   1.111       .  S
H360        C762   1.111       .  S
C361        C362   1.402       .  A
C361        C366   1.400       .  A
C361        H368   1.084       .  S
C362        C363   1.416       .  A
C363        C370   1.509       .  S
C363        C364   1.403       .  A
C364        C365   1.405       .  A
C364        H369   1.084       .  S
C365        C366   1.419       .  A
C366        C367   1.510       .  S
C367        H371   1.111       .  S
C367        H372   1.111       .  S
C367        H373   1.110       .  S
C370        H374   1.110       .  S
C370        H375   1.111       .  S
C370        H376   1.111       .  S
C377       C1194   1.403       .  A
C377        C790   1.417   1_554  A
C377        H384   1.084       .  S
C378        C379   1.406   1_455  A
C378       C1193   1.403       .  A
C379        C386   1.510       .  S
C379        C788   1.403       .  A
C380        C381   1.421   1_655  A
C380        C787   1.403       .  A
C380        H385   1.075       .  S
C381        C817   1.562       .  S
C381       C1198   1.429       .  A
C382        C383   1.508       .  S
C382        C785   1.417       .  A
C382       C1197   1.429       .  A
C383        H387   1.111       .  S
C383        H388   1.106       .  S
C383       H1205   1.109       .  S
C386        H391   1.108       .  S
C386        H392   1.111       .  S
C386       H1206   1.110       .  S
H389       C1199   1.109       .  S
H390       C1202   1.110       .  S
C393        C394   1.410       .  A
C393        C398   1.415       .  A
C393        H400   1.081       .  S
C394       C1211   1.431       .  A
C395        C402   1.514       .  S
C395        C396   1.403       .  A
C395       C1210   1.431       .  A
C396       C1213   1.403       .  A
C396        H401   1.082       .  S
C397        C398   1.424       .  A
C397       C1212   1.403       .  A
C398        C399   1.506       .  S
C399        H403   1.111       .  S
C399        H404   1.110       .  S
C399        H405   1.105       .  S
C402        H406   1.110       .  S
C402        H407   1.103       .  S
C402        H408   1.111       .  S
C409       C1226   1.533       .  S
C409        C415   1.543       .  S
C409       C1229   1.550       .  S
C409       C1605   1.562       .  S
C410       C1225   1.532       .  S
C410        H417   1.087       .  S
C410        C411   1.363       .  D
C411        C412   1.540       .  S
C411        C473   1.479       .  S
C412       C1232   1.534   1_455  S
C412        C414   1.551       .  S
C412        H418   1.108       .  S
C413       C1225   1.550       .  S
C413       H1235   1.081       .  S
C413        C414   1.387       .  D
C414        C805   1.516       .  S
C415        H420   1.081       .  S
C415        C416   1.358       .  D
C416       C1228   1.534       .  S
C416        C447   1.476       .  S
H419       C1229   1.081       .  S
C421       C1238   1.535   1_455  S
C421        C427   1.530       .  S
C421        C425   1.555       .  S
C421        C802   1.549       .  S
C422       C1237   1.535       .  S
C422        H429   1.086       .  S
C422        C423   1.362       .  D
C423       C1240   1.540       .  S
C423        C510   1.477       .  S
C424       C1239   1.540   1_455  S
C424        C428   1.540       .  S
C424        C426   1.540       .  S
C424        H430   1.111       .  S
C425        H431   1.083       .  S
C425        C426   1.381       .  D
C426        C786   1.496       .  S
C427        H432   1.087       .  S
C427        C428   1.362       .  D
C428        C536   1.478       .  S
O433        C436   1.268       .  A
O433       Cd438   2.483       .  S
C434        C499   1.483       .  S
C434        O443   1.265       .  A
C434        O439   1.262       .  A
O435        C441   1.266       .  A
O435       Cd438   2.461       .  S
C436        O444   1.264       .  A
C436        C741   1.487       .  S
C437        O442   1.267       .  A
C437        O440   1.263       .  A
C437        C754   1.489       .  S
Cd438       O445   2.435       .  S
Cd438       O444   2.434       .  S
Cd438       O443   2.539       .  S
Cd438       O439   2.422       .  S
Cd438       O442   2.462       .  S
Cd438       O440   2.448       .  S
C441        O445   1.263       .  A
C441        C773   1.482       .  S
O446        C449   1.269       .  A
O446       Cd451   2.473       .  S
C447        O456   1.262       .  A
C447        O452   1.261       .  A
O448        C454   1.266       .  A
O448       Cd451   2.474       .  S
C449        O457   1.263       .  A
C449        C722   1.484       .  S
C450        O455   1.266       .  A
C450        O453   1.267       .  A
C450        C770   1.477       .  S
Cd451       O458   2.439       .  S
Cd451       O457   2.425       .  S
Cd451       O456   2.519       .  S
Cd451       O452   2.433       .  S
Cd451       O455   2.419       .  S
Cd451       O453   2.444       .  S
C454        O458   1.261       .  A
C454        C757   1.484       .  S
O459        C462   1.266       .  A
O459       Cd464   2.472       .  S
C460        C504   1.479       .  S
C460        O469   1.264       .  A
C460        O465   1.264       .  A
O461        C467   1.266       .  A
O461       Cd464   2.460       .  S
C462        O470   1.267       .  A
C462        C738   1.491       .  S
C463        O468   1.264       .  A
C463        O466   1.266       .  A
C463        C690   1.485       .  S
Cd464       O471   2.454       .  S
Cd464       O470   2.451       .  S
Cd464       O469   2.500       .  S
Cd464       O465   2.453       .  S
Cd464       O468   2.440       .  S
Cd464       O466   2.461       .  S
C467        O471   1.263       .  A
C467        C706   1.487       .  S
O472        C475   1.265       .  A
O472       Cd477   2.462       .  S
C473        O482   1.264       .  A
C473        O478   1.263       .  A
O474        C480   1.264       .  A
O474       Cd477   2.447       .  S
C475        O483   1.267       .  A
C475        C725   1.485       .  S
C476        O481   1.268       .  A
C476        O479   1.264       .  A
C476        C709   1.489       .  S
Cd477       O484   2.461       .  S
Cd477       O483   2.447       .  S
Cd477       O482   2.508       .  S
Cd477       O478   2.453       .  S
Cd477       O481   2.461       .  S
Cd477       O479   2.449       .  S
C480        O484   1.264       .  A
C480        C693   1.486       .  S
C485        C486   1.533       .  S
C485        C491   1.531       .  S
C485        C489   1.560   1_565  S
C485        C674   1.556       .  S
C486        H493   1.086       .  S
C486        C487   1.362       .  D
C487        C488   1.540       .  S
C487        C549   1.477       .  S
C488        C492   1.543       .  S
C488        C490   1.547       .  S
C488        H494   1.109       .  S
C489        H495   1.083       .  S
C489        C490   1.387   1_545  D
C490        C658   1.514   1_565  S
C491        H496   1.087       .  S
C491        C492   1.362       .  D
C492        C523   1.483       .  S
C497        C498   1.525       .  S
C497        C503   1.534       .  S
C497        C501   1.561       .  S
C497        C661   1.554       .  S
C498        H505   1.087       .  S
C498        C499   1.359       .  D
C499        C500   1.545       .  S
C500        C504   1.543       .  S
C500        C502   1.550       .  S
C500        H506   1.108       .  S
C501        H507   1.082       .  S
C501        C502   1.388       .  D
C502        C677   1.521       .  S
C503        H508   1.086       .  S
C503        C504   1.363       .  D
O509        C512   1.267       .  A
O509       Cd514   2.472       .  S
C510        O519   1.263       .  A
C510        O515   1.261       .  A
O511        C517   1.263       .  A
O511       Cd514   2.438       .  S
C512        O520   1.265       .  A
C512        C610   1.488       .  S
C513        O518   1.265       .  A
C513        O516   1.265       .  A
C513        C642   1.484       .  S
Cd514       O521   2.457       .  S
Cd514       O520   2.442       .  S
Cd514       O519   2.523       .  S
Cd514       O515   2.436       .  S
Cd514       O518   2.457       .  S
Cd514       O516   2.440       .  S
C517        O521   1.268       .  A
C517        C626   1.483       .  S
O522        C525   1.267       .  A
O522       Cd527   2.465       .  S
C523        O532   1.265       .  A
C523        O528   1.261       .  A
O524        C530   1.265       .  A
O524       Cd527   2.461       .  S
C525        O533   1.266       .  A
C525        C594   1.484       .  S
C526        O531   1.264       .  A
C526        O529   1.266       .  A
C526        C629   1.487       .  S
Cd527       O534   2.440       .  S
Cd527       O533   2.450       .  S
Cd527       O532   2.533       .  S
Cd527       O528   2.444       .  S
Cd527       O531   2.452       .  S
Cd527       O529   2.461       .  S
C530        O534   1.265       .  A
C530        C645   1.487       .  S
O535        C538   1.264       .  A
O535       Cd540   2.459       .  S
C536        O545   1.265       .  A
C536        O541   1.262       .  A
O537        C543   1.266       .  A
O537       Cd540   2.461       .  S
C538        O546   1.267       .  A
C538        C613   1.489       .  S
C539        O544   1.262       .  A
C539        O542   1.267       .  A
C539        C562   1.483       .  S
Cd540       O547   2.444       .  S
Cd540       O546   2.471       .  S
Cd540       O545   2.517       .  S
Cd540       O541   2.433       .  S
Cd540       O544   2.439       .  S
Cd540       O542   2.476       .  S
C543        O547   1.266       .  A
C543        C581   1.485       .  S
O548        C551   1.269       .  A
O548       Cd553   2.469       .  S
C549        O558   1.264       .  A
C549        O554   1.262       .  A
O550        C556   1.262       .  A
O550       Cd553   2.448       .  S
C551        O559   1.265       .  A
C551        C597   1.486       .  S
C552        O557   1.263       .  A
C552        O555   1.265       .  A
C552        C578   1.487       .  S
Cd553       O560   2.465       .  S
Cd553       O559   2.442       .  S
Cd553       O558   2.510       .  S
Cd553       O554   2.441       .  S
Cd553       O557   2.446       .  S
Cd553       O555   2.453       .  S
C556        O560   1.267       .  A
C556        C565   1.484       .  S
C561        C562   1.405       .  A
C561        H568   1.084       .  S
C562        C563   1.417       .  A
C563        C570   1.509       .  S
C564        C565   1.405       .  A
C564        H569   1.084       .  S
C565        C566   1.417       .  A
C566        C567   1.509       .  S
C567        H571   1.111       .  S
C567        H572   1.110       .  S
C567        H573   1.109       .  S
C570        H574   1.109       .  S
C570        H575   1.110       .  S
C570        H576   1.111       .  S
C577        C578   1.407       .  A
C577        C582   1.403       .  A
C577        H584   1.084       .  S
C578        C579   1.419       .  A
C579        C586   1.509       .  S
C579        C580   1.402       .  A
C580        C581   1.404       .  A
C580        H585   1.084       .  S
C581        C582   1.417       .  A
C582        C583   1.509       .  S
C583        H587   1.111       .  S
C583        H588   1.110       .  S
C583        H589   1.110       .  S
C586        H590   1.110       .  S
C586        H591   1.110       .  S
C586        H592   1.111       .  S
C593        C594   1.404       .  A
C593       C1414   1.405       .  A
C593        H600   1.084       .  S
C594        C595   1.417       .  A
C595        C602   1.509       .  S
C595       C1412   1.404       .  A
C596       C1411   1.404   1_455  A
C596        C597   1.405       .  A
C596        H601   1.084       .  S
C597        C598   1.417       .  A
C598        C599   1.508       .  S
C598       C1409   1.405   1_455  A
C599        H603   1.111       .  S
C599        H604   1.109       .  S
C599        H605   1.110       .  S
C602        H606   1.111       .  S
C602        H607   1.110       .  S
C602        H608   1.111       .  S
C609        C610   1.406       .  A
C609        C614   1.405       .  A
C609        H616   1.084       .  S
C610        C611   1.417       .  A
C611        C618   1.508       .  S
C611        C612   1.404       .  A
C612        C613   1.405       .  A
C612        H617   1.084       .  S
C613        C614   1.418       .  A
C614        C615   1.508       .  S
C615        H619   1.111       .  S
C615        H620   1.110       .  S
C615        H621   1.109       .  S
C618        H622   1.110       .  S
C618        H623   1.110       .  S
C618        H624   1.111       .  S
C625        C630   1.403       .  A
C625        H632   1.084   1_556  S
C626        C627   1.417       .  A
C627        C634   1.509       .  S
C627        C628   1.403       .  A
C628        H633   1.084       .  S
C629        C630   1.418       .  A
C630        C631   1.509       .  S
C631        H635   1.111       .  S
C631        H636   1.110       .  S
C631        H637   1.110       .  S
C634        H638   1.110       .  S
C634        H639   1.110       .  S
C634        H640   1.111       .  S
C641        C642   1.406       .  A
C641        C646   1.402       .  A
C641        H648   1.084       .  S
C642        C643   1.416       .  A
C643        C650   1.509       .  S
C643        C644   1.402       .  A
C644        C645   1.407       .  A
C644        H649   1.084       .  S
C645        C646   1.417       .  A
C646        C647   1.509       .  S
C647        H651   1.111       .  S
C647        H652   1.110       .  S
C647        H653   1.110       .  S
C650        H654   1.110       .  S
C650        H655   1.110       .  S
C650        H656   1.111       .  S
C657        C658   1.402       .  A
C657        H664   1.084       .  S
C658        C659   1.421   1_545  A
C659        C666   1.505       .  S
C660        C661   1.410       .  A
C660        H665   1.080   1_545  S
C661        C662   1.435       .  A
C662        C663   1.513       .  S
C663        H668   1.102       .  S
C663        H669   1.110       .  S
C666        H670   1.104       .  S
C666        H671   1.110       .  S
C666        H672   1.111       .  S
C673        C674   1.409   1_545  A
C673        C678   1.415       .  A
C673        H680   1.080       .  S
C674        C675   1.434       .  A
C675        C682   1.513       .  S
C675        C676   1.409       .  A
C676        C677   1.403   1_565  A
C676        H681   1.083       .  S
C677        C678   1.424       .  A
C678        C679   1.504       .  S
C679        H683   1.111       .  S
C679        H684   1.110       .  S
C679        H685   1.104       .  S
C682        H686   1.110       .  S
C682        H687   1.102       .  S
C682        H688   1.111       .  S
C689        C690   1.407       .  A
C689        C694   1.403       .  A
C689        H696   1.084       .  S
C690        C691   1.415       .  A
C691        C698   1.508       .  S
C691        C692   1.403       .  A
C692        C693   1.407       .  A
C692        H697   1.084       .  S
C693        C694   1.416       .  A
C694        C695   1.509       .  S
C695        H699   1.110       .  S
C695        H700   1.110       .  S
C695        H701   1.111       .  S
C698        H702   1.111       .  S
C698        H703   1.110       .  S
C698        H704   1.111       .  S
C705        C706   1.405       .  A
C705        H712   1.084       .  S
C706        C707   1.418       .  A
C707        C714   1.509       .  S
C708        C709   1.406       .  A
C708        H713   1.084       .  S
C709        C710   1.419       .  A
C711        H715   1.111       .  S
C714        H718   1.110       .  S
C714        H719   1.110       .  S
C721        C722   1.405       .  A
C721        C726   1.404       .  A
C721        H728   1.084       .  S
C722        C723   1.417       .  A
C723        C730   1.509       .  S
C723        C724   1.402       .  A
C724        C725   1.404       .  A
C724        H729   1.084       .  S
C725        C726   1.418       .  A
C726        C727   1.509       .  S
C727        H731   1.111       .  S
C727        H732   1.110       .  S
C727        H733   1.111       .  S
C730        H734   1.110       .  S
C730        H735   1.109       .  S
C730        H736   1.111       .  S
C737        C738   1.405       .  A
C737       C1558   1.403   1_455  A
C737        H744   1.084       .  S
C738        C739   1.420       .  A
C739        C746   1.508       .  S
C739       C1556   1.407   1_455  A
C740       C1555   1.407       .  A
C740        C741   1.405       .  A
C740        H745   1.084       .  S
C741        C742   1.416       .  A
C742        C743   1.508       .  S
C742       C1553   1.403       .  A
C743        H747   1.111       .  S
C743        H748   1.109       .  S
C743        H749   1.111       .  S
C746        H750   1.110       .  S
C746        H751   1.110       .  S
C746        H752   1.111   1_455  S
C753        C754   1.405       .  A
C753        H760   1.084       .  S
C755        C756   1.405       .  A
C756        C757   1.403       .  A
C756        H761   1.084       .  S
C757        C758   1.418       .  A
C758        C759   1.510       .  S
C759        H764   1.111       .  S
C759        H765   1.110       .  S
C762        H766   1.110       .  S
C762        H767   1.110       .  S
C769        C770   1.402       .  A
C769        C774   1.400       .  A
C769        H776   1.084       .  S
C770        C771   1.416       .  A
C771        C778   1.509       .  S
C771        C772   1.403       .  A
C772        C773   1.405       .  A
C772        H777   1.084       .  S
C773        C774   1.419       .  A
C774        C775   1.510       .  S
C775        H779   1.111       .  S
C775        H780   1.111       .  S
C775        H781   1.110       .  S
C778        H782   1.110       .  S
C778        H783   1.111       .  S
C778        H784   1.111       .  S
C785       C1602   1.404       .  A
C785        H792   1.084       .  S
C786       C1601   1.404       .  A
C786        C787   1.407   1_455  A
C787        C794   1.510       .  S
C788        C789   1.421   1_654  A
C788        H793   1.074       .  S
C789       C1225   1.562       .  S
C789       C1606   1.429       .  A
C790        C791   1.509       .  S
C790       C1605   1.429       .  A
C791        H795   1.111       .  S
C791        H796   1.106       .  S
C791       H1613   1.109       .  S
C794       H1614   1.110       .  S
C794        H799   1.108       .  S
C794        H800   1.111       .  S
H797       C1607   1.109       .  S
H798       C1610   1.111       .  S
C801        C802   1.410       .  A
C801        C806   1.415       .  A
C801        H808   1.081       .  S
C802       C1619   1.431       .  A
C803        C810   1.513       .  S
C803       C1618   1.431       .  A
C803        C804   1.404       .  A
C804       C1621   1.403       .  A
C804        H809   1.082       .  S
C805       C1620   1.403       .  A
C805        C806   1.424       .  A
C806        C807   1.506       .  S
C807        H811   1.111       .  S
C807        H812   1.110       .  S
C807        H813   1.105       .  S
C810        H814   1.110       .  S
C810        H815   1.103       .  S
C810        H816   1.111       .  S
C817        C823   1.543   1_455  S
C818        H825   1.087       .  S
C818        C819   1.364       .  D
C819        C820   1.540       .  S
C819        C881   1.479       .  S
C820        C822   1.550       .  S
C820        H826   1.108       .  S
C821        C822   1.387       .  D
C822       C1213   1.516       .  S
C823        H828   1.082       .  S
C823        C824   1.358       .  D
C824        C855   1.476       .  S
C829        C835   1.530       .  S
C829        C833   1.555       .  S
C829       C1210   1.549       .  S
C830        H837   1.086       .  S
C830        C831   1.362       .  D
C831        C918   1.477       .  S
C832        C836   1.539       .  S
C832        C834   1.540       .  S
C832        H838   1.111       .  S
C833        H839   1.083       .  S
C833        C834   1.381       .  D
C834       C1194   1.495       .  S
C835        H840   1.087       .  S
C835        C836   1.362       .  D
C836        C944   1.478       .  S
O841        C844   1.268       .  A
O841       Cd846   2.485       .  S
C842        C907   1.483       .  S
C842        O851   1.265       .  A
C842        O847   1.262       .  A
O843        C849   1.266       .  A
O843       Cd846   2.460       .  S
C844        O852   1.264       .  A
C844       C1149   1.487       .  S
C845        O850   1.267       .  A
C845        O848   1.263       .  A
C845       C1162   1.490       .  S
Cd846       O853   2.435       .  S
Cd846       O852   2.434       .  S
Cd846       O851   2.540       .  S
Cd846       O847   2.423       .  S
Cd846       O850   2.461       .  S
Cd846       O848   2.453       .  S
C849        O853   1.263       .  A
C849       C1181   1.482       .  S
O854        C857   1.269       .  A
O854       Cd859   2.474       .  S
C855        O864   1.262       .  A
C855        O860   1.261       .  A
O856        C862   1.266       .  A
O856       Cd859   2.473       .  S
C857        O865   1.263       .  A
C857       C1130   1.485       .  S
C858        O863   1.266       .  A
C858        O861   1.267       .  A
C858       C1178   1.478       .  S
Cd859       O866   2.436       .  S
Cd859       O865   2.426       .  S
Cd859       O864   2.519       .  S
Cd859       O860   2.434       .  S
Cd859       O863   2.422       .  S
Cd859       O861   2.446       .  S
C862        O866   1.261       .  A
C862       C1165   1.484       .  S
O867        C870   1.266       .  A
O867       Cd872   2.474       .  S
C868        C912   1.480       .  S
C868        O877   1.264       .  A
C868        O873   1.264       .  A
O869        C875   1.265       .  A
O869       Cd872   2.460       .  S
C870        O878   1.267       .  A
C870       C1146   1.491       .  S
C871        O876   1.264       .  A
C871        O874   1.265       .  A
C871       C1098   1.485       .  S
Cd872       O879   2.457       .  S
Cd872       O878   2.451       .  S
Cd872       O877   2.502       .  S
Cd872       O873   2.455       .  S
Cd872       O876   2.441       .  S
Cd872       O874   2.463       .  S
C875        O879   1.263       .  A
C875       C1114   1.487       .  S
O880        C883   1.265       .  A
O880       Cd885   2.462       .  S
C881        O890   1.264       .  A
C881        O886   1.263       .  A
O882        C888   1.264       .  A
O882       Cd885   2.453       .  S
C883        O891   1.267       .  A
C883       C1133   1.485       .  S
C884        O889   1.267       .  A
C884        O887   1.264       .  A
C884       C1117   1.487       .  S
Cd885       O892   2.458       .  S
Cd885       O891   2.446       .  S
Cd885       O890   2.506       .  S
Cd885       O886   2.453       .  S
Cd885       O889   2.457       .  S
Cd885       O887   2.446       .  S
C888        O892   1.264       .  A
C888       C1101   1.486       .  S
C893        C894   1.533       .  S
C893        C899   1.531       .  S
C893        C897   1.560   1_565  S
C893       C1082   1.555       .  S
C894        H901   1.086       .  S
C894        C895   1.362       .  D
C895        C896   1.540       .  S
C895        C957   1.477       .  S
C896        C900   1.543       .  S
C896        C898   1.547       .  S
C896        H902   1.109       .  S
C897        H903   1.083       .  S
C897        C898   1.387   1_545  D
C898       C1066   1.514   1_565  S
C899        H904   1.087       .  S
C899        C900   1.362       .  D
C900        C931   1.483       .  S
C905        C906   1.525       .  S
C905        C911   1.534       .  S
C905        C909   1.561       .  S
C905       C1069   1.554       .  S
C906        H913   1.087       .  S
C906        C907   1.359       .  D
C907        C908   1.546       .  S
C908        C912   1.543       .  S
C908        C910   1.550       .  S
C908        H914   1.108       .  S
C909        H915   1.082       .  S
C909        C910   1.388       .  D
C910       C1085   1.521       .  S
C911        H916   1.086       .  S
C911        C912   1.363       .  D
O917        C920   1.267       .  A
O917       Cd922   2.471       .  S
C918        O927   1.263       .  A
C918        O923   1.261       .  A
O919        C925   1.263       .  A
O919       Cd922   2.440       .  S
C920        O928   1.265       .  A
C920       C1018   1.488       .  S
C921        O926   1.265       .  A
C921        O924   1.265       .  A
C921       C1050   1.484       .  S
Cd922       O929   2.455       .  S
Cd922       O928   2.445       .  S
Cd922       O927   2.522       .  S
Cd922       O923   2.436       .  S
Cd922       O926   2.458       .  S
Cd922       O924   2.437       .  S
C925        O929   1.268       .  A
C925       C1034   1.483       .  S
O930        C933   1.267       .  A
O930       Cd935   2.465       .  S
C931        O940   1.265       .  A
C931        O936   1.262       .  A
O932        C938   1.265       .  A
O932       Cd935   2.459       .  S
C933        O941   1.266       .  A
C933       C1002   1.484       .  S
C934        O939   1.264       .  A
C934        O937   1.266       .  A
C934       C1037   1.485       .  S
Cd935       O942   2.442       .  S
Cd935       O941   2.448       .  S
Cd935       O940   2.532       .  S
Cd935       O936   2.444       .  S
Cd935       O939   2.452       .  S
Cd935       O937   2.459       .  S
C938        O942   1.265       .  A
C938       C1053   1.487       .  S
O943        C946   1.264       .  A
O943       Cd948   2.459       .  S
C944        O953   1.265       .  A
C944        O949   1.262       .  A
O945        C951   1.266       .  A
O945       Cd948   2.462       .  S
C946        O954   1.267       .  A
C946       C1021   1.489       .  S
C947        O952   1.262       .  A
C947        O950   1.267       .  A
C947        C970   1.483       .  S
Cd948       O955   2.442       .  S
Cd948       O954   2.471       .  S
Cd948       O953   2.517       .  S
Cd948       O949   2.432       .  S
Cd948       O952   2.440       .  S
Cd948       O950   2.476       .  S
C951        O955   1.266       .  A
C951        C989   1.485       .  S
O956        C959   1.269       .  A
O956       Cd961   2.470       .  S
C957        O966   1.264       .  A
C957        O962   1.262       .  A
O958        C964   1.262       .  A
O958       Cd961   2.447       .  S
C959        O967   1.265       .  A
C959       C1005   1.485       .  S
C960        O965   1.263       .  A
C960        O963   1.265       .  A
C960        C986   1.487       .  S
Cd961       O968   2.463       .  S
Cd961       O967   2.440       .  S
Cd961       O966   2.510       .  S
Cd961       O962   2.441       .  S
Cd961       O965   2.445       .  S
Cd961       O963   2.456       .  S
C964        O968   1.267       .  A
C964        C973   1.484       .  S
C969        C970   1.405   1_556  A
C969       C1382   1.404       .  A
C969        H976   1.084       .  S
C970        C971   1.416       .  A
C971        C978   1.509       .  S
C971       C1380   1.403   1_554  A
C972       C1379   1.403       .  A
C972        C973   1.405       .  A
C972        H977   1.084       .  S
C973        C974   1.417       .  A
C974        C975   1.509       .  S
C974       C1377   1.404       .  A
C975        H979   1.111       .  S
C975        H980   1.110       .  S
C975        H981   1.110       .  S
C978        H982   1.109       .  S
C978        H983   1.110       .  S
C978        H984   1.111       .  S
C985        C986   1.407       .  A
C985        C990   1.403       .  A
C985        H992   1.084       .  S
C986        C987   1.419       .  A
C987        C994   1.509       .  S
C987        C988   1.402       .  A
C988        C989   1.405       .  A
C988        H993   1.084       .  S
C989        C990   1.417       .  A
C990        C991   1.509       .  S
C991        H995   1.111       .  S
C991        H996   1.110       .  S
C991        H997   1.110       .  S
C994        H998   1.110       .  S
C994        H999   1.110       .  S
C994       H1000   1.111       .  S
C1001      C1002   1.404       .  A
C1001      H1008   1.084       .  S
C1002      C1003   1.417       .  A
C1003      C1010   1.509       .  S
C1004      C1005   1.405       .  A
C1004      H1009   1.084       .  S
C1005      C1006   1.417       .  A
C1006      C1007   1.508       .  S
C1007      H1011   1.111       .  S
C1007      H1012   1.109       .  S
C1007      H1013   1.110       .  S
C1010      H1014   1.110       .  S
C1010      H1015   1.110       .  S
C1010      H1016   1.111       .  S
C1017      C1018   1.406       .  A
C1017      C1022   1.405       .  A
C1017      H1024   1.084       .  S
C1018      C1019   1.417       .  A
C1019      C1026   1.508       .  S
C1019      C1020   1.404       .  A
C1020      C1021   1.405       .  A
C1020      H1025   1.084       .  S
C1021      C1022   1.418       .  A
C1022      C1023   1.508       .  S
C1023      H1027   1.111       .  S
C1023      H1028   1.110       .  S
C1023      H1029   1.109       .  S
C1026      H1030   1.110       .  S
C1026      H1031   1.110       .  S
C1026      H1032   1.111       .  S
C1033      C1442   1.405       .  A
C1033      C1038   1.403       .  A
C1033      H1040   1.084       .  S
C1034      C1441   1.405   1_554  A
C1034      C1035   1.417       .  A
C1035      C1042   1.509       .  S
C1035      C1036   1.404   1_554  A
C1036      C1445   1.407       .  A
C1036      H1041   1.084       .  S
C1037      C1444   1.406       .  A
C1037      C1038   1.417       .  A
C1038      C1039   1.509       .  S
C1039      H1043   1.111       .  S
C1039      H1044   1.109       .  S
C1039      H1045   1.110       .  S
C1042      H1046   1.110       .  S
C1042      H1047   1.110       .  S
C1042      H1048   1.111       .  S
C1049      C1050   1.406       .  A
C1049      C1054   1.402       .  A
C1049      H1056   1.084       .  S
C1050      C1051   1.416       .  A
C1051      C1058   1.509       .  S
C1051      C1052   1.403       .  A
C1052      C1053   1.408       .  A
C1052      H1057   1.084       .  S
C1053      C1054   1.417       .  A
C1054      C1055   1.509       .  S
C1055      H1059   1.111       .  S
C1055      H1060   1.110       .  S
C1055      H1061   1.110       .  S
C1058      H1062   1.110       .  S
C1058      H1063   1.110       .  S
C1058      H1064   1.111       .  S
C1065      C1066   1.402       .  A
C1065      C1478   1.408       .  A
C1065      H1072   1.084       .  S
C1066      C1067   1.421   1_545  A
C1067      C1074   1.505       .  S
C1067      C1476   1.414   1_565  A
C1068      C1475   1.414   1_544  A
C1068      C1069   1.410       .  A
C1068      H1073   1.080   1_545  S
C1069      C1070   1.435   1_554  A
C1070      C1071   1.513       .  S
C1070      C1473   1.408       .  A
C1071      H1483   1.111       .  S
C1071      H1076   1.102   1_556  S
C1071      H1077   1.110       .  S
C1074      H1078   1.104       .  S
C1074      H1079   1.110       .  S
C1074      H1080   1.111       .  S
H1075      C1479   1.111       .  S
C1081      C1082   1.409   1_545  A
C1081      C1086   1.415       .  A
C1081      H1088   1.080       .  S
C1082      C1083   1.434       .  A
C1083      C1090   1.513       .  S
C1083      C1084   1.408       .  A
C1084      C1085   1.403   1_565  A
C1084      H1089   1.083       .  S
C1085      C1086   1.424       .  A
C1086      C1087   1.504       .  S
C1087      H1091   1.111       .  S
C1087      H1092   1.110       .  S
C1087      H1093   1.104       .  S
C1090      H1094   1.110       .  S
C1090      H1095   1.102       .  S
C1090      H1096   1.111       .  S
C1097      C1098   1.407       .  A
C1097      C1102   1.403       .  A
C1097      H1104   1.084       .  S
C1098      C1099   1.415       .  A
C1099      C1106   1.508       .  S
C1099      C1100   1.403       .  A
C1100      C1101   1.407       .  A
C1100      H1105   1.084       .  S
C1101      C1102   1.416       .  A
C1102      C1103   1.509       .  S
C1103      H1107   1.110       .  S
C1103      H1108   1.110       .  S
C1103      H1109   1.111       .  S
C1106      H1110   1.111       .  S
C1106      H1111   1.110       .  S
C1106      H1112   1.111       .  S
C1113      C1114   1.405       .  A
C1113      C1526   1.403   1_554  A
C1113      H1120   1.084       .  S
C1114      C1115   1.418       .  A
C1115      C1122   1.509       .  S
C1115      C1524   1.403   1_554  A
C1116      C1523   1.403       .  A
C1116      C1117   1.405       .  A
C1116      H1121   1.084       .  S
C1117      C1118   1.418       .  A
C1118      C1527   1.509       .  S
C1118      C1521   1.403       .  A
C1119      C1526   1.509       .  S
C1119      H1123   1.111   1_556  S
C1119      H1532   1.110   1_556  S
C1119      H1533   1.110       .  S
C1122      H1126   1.110       .  S
C1122      H1127   1.110       .  S
C1122      H1536   1.111   1_554  S
H1124      C1527   1.110       .  S
H1125      C1527   1.110       .  S
H1128      C1530   1.111       .  S
C1129      C1130   1.405       .  A
C1129      C1134   1.404       .  A
C1129      H1136   1.084       .  S
C1130      C1131   1.418       .  A
C1131      C1138   1.509       .  S
C1131      C1132   1.403       .  A
C1132      C1133   1.404       .  A
C1132      H1137   1.084       .  S
C1133      C1134   1.418       .  A
C1134      C1135   1.509       .  S
C1135      H1139   1.111       .  S
C1135      H1140   1.110       .  S
C1135      H1141   1.111       .  S
C1138      H1142   1.110       .  S
C1138      H1143   1.109       .  S
C1138      H1144   1.111       .  S
C1145      C1146   1.405       .  A
C1145      H1152   1.084       .  S
C1146      C1147   1.420       .  A
C1147      C1154   1.508       .  S
C1148      C1149   1.405       .  A
C1148      H1153   1.084       .  S
C1149      C1150   1.416       .  A
C1150      C1151   1.508       .  S
C1151      H1155   1.111       .  S
C1151      H1156   1.109       .  S
C1151      H1157   1.111       .  S
C1154      H1158   1.110       .  S
C1154      H1159   1.110       .  S
C1154      H1160   1.111       .  S
C1161      C1162   1.405       .  A
C1161      C1574   1.402   1_554  A
C1161      H1168   1.084       .  S
C1162      C1571   1.421   1_554  A
C1163      C1578   1.509       .  S
C1163      C1570   1.421       .  A
C1163      C1164   1.404       .  A
C1164      C1165   1.404       .  A
C1164      H1169   1.084       .  S
C1165      C1166   1.418       .  A
C1166      C1167   1.510       .  S
C1166      C1569   1.401       .  A
C1167      H1579   1.111       .  S
C1167      H1172   1.111       .  S
C1167      H1173   1.110       .  S
C1170      C1571   1.509   1_554  S
C1170      H1174   1.110   1_554  S
C1170      H1175   1.110       .  S
C1170      H1584   1.111   1_554  S
H1171      C1575   1.111       .  S
H1176      C1578   1.111       .  S
C1177      C1178   1.402       .  A
C1177      C1182   1.401       .  A
C1177      H1184   1.084       .  S
C1178      C1179   1.416       .  A
C1179      C1186   1.509       .  S
C1179      C1180   1.403       .  A
C1180      C1181   1.405       .  A
C1180      H1185   1.084       .  S
C1181      C1182   1.419       .  A
C1182      C1183   1.510       .  S
C1183      H1187   1.111       .  S
C1183      H1188   1.111       .  S
C1183      H1189   1.110       .  S
C1186      H1190   1.110       .  S
C1186      H1191   1.111       .  S
C1186      H1192   1.111       .  S
C1193      C1606   1.417   1_554  A
C1193      H1200   1.084       .  S
C1194      C1195   1.406       .  A
C1195      C1202   1.510       .  S
C1195      C1604   1.403       .  A
C1196      C1603   1.403       .  A
C1196      C1197   1.421       .  A
C1196      H1201   1.075       .  S
C1198      C1199   1.508       .  S
C1198      C1601   1.417       .  A
C1199      H1203   1.111       .  S
C1199      H1204   1.106       .  S
C1202      H1207   1.108       .  S
C1202      H1208   1.111       .  S
C1209      C1210   1.410       .  A
C1209      C1214   1.415       .  A
C1209      H1216   1.081       .  S
C1211      C1218   1.514   1_455  S
C1211      C1212   1.403       .  A
C1212      H1217   1.082   1_455  S
C1213      C1214   1.424       .  A
C1214      C1215   1.506       .  S
C1215      H1219   1.111       .  S
C1215      H1220   1.110       .  S
C1215      H1221   1.105       .  S
C1218      H1222   1.110       .  S
C1218      H1223   1.103       .  S
C1218      H1224   1.111   1_655  S
C1225      C1231   1.543   1_455  S
C1226      H1233   1.087       .  S
C1226      C1227   1.363       .  D
C1227      C1228   1.540       .  S
C1227      C1289   1.479       .  S
C1228      C1230   1.551       .  S
C1228      H1234   1.108       .  S
C1229      C1230   1.387       .  D
C1230      C1621   1.516       .  S
C1231      H1236   1.081       .  S
C1231      C1232   1.358       .  D
C1232      C1263   1.476       .  S
C1237      C1243   1.530       .  S
C1237      C1241   1.555       .  S
C1237      C1618   1.549       .  S
C1238      H1245   1.086       .  S
C1238      C1239   1.362       .  D
C1239      C1326   1.478       .  S
C1240      C1244   1.539       .  S
C1240      C1242   1.540       .  S
C1240      H1246   1.111       .  S
C1241      H1247   1.083       .  S
C1241      C1242   1.381       .  D
C1242      C1602   1.496       .  S
C1243      H1248   1.087       .  S
C1243      C1244   1.363       .  D
C1244      C1352   1.478       .  S
O1249      C1252   1.268       .  A
O1249     Cd1254   2.482       .  S
C1250      C1315   1.483       .  S
C1250      O1259   1.265       .  A
C1250      O1255   1.262       .  A
O1251      C1257   1.266       .  A
O1251     Cd1254   2.460       .  S
C1252      O1260   1.264       .  A
C1252      C1557   1.487       .  S
C1253      O1258   1.267       .  A
C1253      O1256   1.263       .  A
C1253      C1570   1.489       .  S
Cd1254     O1261   2.436       .  S
Cd1254     O1260   2.434       .  S
Cd1254     O1259   2.540       .  S
Cd1254     O1255   2.421       .  S
Cd1254     O1258   2.460       .  S
Cd1254     O1256   2.449       .  S
C1257      O1261   1.263       .  A
C1257      C1589   1.482       .  S
O1262      C1265   1.269       .  A
O1262     Cd1267   2.474       .  S
C1263      O1272   1.261       .  A
C1263      O1268   1.261       .  A
O1264      C1270   1.266       .  A
O1264     Cd1267   2.474       .  S
C1265      O1273   1.263       .  A
C1265      C1538   1.484       .  S
C1266      O1271   1.266       .  A
C1266      O1269   1.267       .  A
C1266      C1586   1.478       .  S
Cd1267     O1274   2.439       .  S
Cd1267     O1273   2.426       .  S
Cd1267     O1272   2.519       .  S
Cd1267     O1268   2.434       .  S
Cd1267     O1271   2.419       .  S
Cd1267     O1269   2.445       .  S
C1270      O1274   1.261       .  A
C1270      C1573   1.484       .  S
O1275      C1278   1.266       .  A
O1275     Cd1280   2.472       .  S
C1276      C1320   1.479       .  S
C1276      O1285   1.264       .  A
C1276      O1281   1.264       .  A
O1277      C1283   1.265       .  A
O1277     Cd1280   2.460       .  S
C1278      O1286   1.267       .  A
C1278      C1554   1.491       .  S
C1279      O1284   1.264       .  A
C1279      O1282   1.266       .  A
C1279      C1506   1.485       .  S
Cd1280     O1287   2.454       .  S
Cd1280     O1286   2.453       .  S
Cd1280     O1285   2.501       .  S
Cd1280     O1281   2.454       .  S
Cd1280     O1284   2.439       .  S
Cd1280     O1282   2.461       .  S
C1283      O1287   1.263       .  A
C1283      C1522   1.487       .  S
O1288      C1291   1.265       .  A
O1288     Cd1293   2.461       .  S
C1289      O1298   1.264       .  A
C1289      O1294   1.263       .  A
O1290      C1296   1.264       .  A
O1290     Cd1293   2.448       .  S
C1291      O1299   1.267       .  A
C1291      C1541   1.485       .  S
C1292      O1297   1.267       .  A
C1292      O1295   1.264       .  A
C1292      C1525   1.489       .  S
Cd1293     O1300   2.460       .  S
Cd1293     O1299   2.447       .  S
Cd1293     O1298   2.507       .  S
Cd1293     O1294   2.453       .  S
Cd1293     O1297   2.460       .  S
Cd1293     O1295   2.447       .  S
C1296      O1300   1.264       .  A
C1296      C1509   1.486       .  S
C1301      C1302   1.533       .  S
C1301      C1307   1.531       .  S
C1301      C1305   1.560   1_565  S
C1301      C1490   1.556       .  S
C1302      H1309   1.086       .  S
C1302      C1303   1.362       .  D
C1303      C1304   1.540       .  S
C1303      C1365   1.477       .  S
C1304      C1308   1.543       .  S
C1304      C1306   1.547       .  S
C1304      H1310   1.109       .  S
C1305      H1311   1.083       .  S
C1305      C1306   1.387   1_545  D
C1306      C1474   1.514   1_565  S
C1307      H1312   1.087       .  S
C1307      C1308   1.363       .  D
C1308      C1339   1.484       .  S
C1313      C1314   1.525       .  S
C1313      C1319   1.534       .  S
C1313      C1317   1.561       .  S
C1313      C1477   1.554       .  S
C1314      H1321   1.087       .  S
C1314      C1315   1.359       .  D
C1315      C1316   1.546       .  S
C1316      C1320   1.543       .  S
C1316      C1318   1.550       .  S
C1316      H1322   1.108       .  S
C1317      H1323   1.082       .  S
C1317      C1318   1.389       .  D
C1318      C1493   1.521       .  S
C1319      H1324   1.086       .  S
C1319      C1320   1.363       .  D
O1325      C1328   1.267       .  A
O1325     Cd1330   2.472       .  S
C1326      O1335   1.264       .  A
C1326      O1331   1.261       .  A
O1327      C1333   1.263       .  A
O1327     Cd1330   2.439       .  S
C1328      O1336   1.265       .  A
C1328      C1426   1.488       .  S
C1329      O1334   1.265       .  A
C1329      O1332   1.265       .  A
C1329      C1458   1.484       .  S
Cd1330     O1337   2.457       .  S
Cd1330     O1336   2.442       .  S
Cd1330     O1335   2.524       .  S
Cd1330     O1331   2.437       .  S
Cd1330     O1334   2.458       .  S
Cd1330     O1332   2.441       .  S
C1333      O1337   1.268       .  A
C1333      C1442   1.483       .  S
O1338      C1341   1.267       .  A
O1338     Cd1343   2.465       .  S
C1339      O1348   1.265       .  A
C1339      O1344   1.261       .  A
O1340      C1346   1.265       .  A
O1340     Cd1343   2.461       .  S
C1341      O1349   1.266       .  A
C1341      C1410   1.484       .  S
C1342      O1347   1.264       .  A
C1342      O1345   1.266       .  A
C1342      C1445   1.486       .  S
Cd1343     O1350   2.441       .  S
Cd1343     O1349   2.451       .  S
Cd1343     O1348   2.534       .  S
Cd1343     O1344   2.445       .  S
Cd1343     O1347   2.453       .  S
Cd1343     O1345   2.461       .  S
C1346      O1350   1.265       .  A
C1346      C1461   1.487       .  S
O1351      C1354   1.264       .  A
O1351     Cd1356   2.459       .  S
C1352      O1361   1.265       .  A
C1352      O1357   1.262       .  A
O1353      C1359   1.266       .  A
O1353     Cd1356   2.461       .  S
C1354      O1362   1.267       .  A
C1354      C1429   1.489       .  S
C1355      O1360   1.262       .  A
C1355      O1358   1.267       .  A
C1355      C1378   1.483       .  S
Cd1356     O1363   2.445       .  S
Cd1356     O1362   2.471       .  S
Cd1356     O1361   2.516       .  S
Cd1356     O1357   2.435       .  S
Cd1356     O1360   2.440       .  S
Cd1356     O1358   2.475       .  S
C1359      O1363   1.266       .  A
C1359      C1397   1.485       .  S
O1364      C1367   1.269       .  A
O1364     Cd1369   2.469       .  S
C1365      O1374   1.264       .  A
C1365      O1370   1.262       .  A
O1366      C1372   1.262       .  A
O1366     Cd1369   2.449       .  S
C1367      O1375   1.265       .  A
C1367      C1413   1.486       .  S
C1368      O1373   1.263       .  A
C1368      O1371   1.265       .  A
C1368      C1394   1.487       .  S
Cd1369     O1376   2.465       .  S
Cd1369     O1375   2.441       .  S
Cd1369     O1374   2.509       .  S
Cd1369     O1370   2.441       .  S
Cd1369     O1373   2.447       .  S
Cd1369     O1371   2.452       .  S
C1372      O1376   1.267       .  A
C1372      C1381   1.484       .  S
C1377      C1378   1.405       .  A
C1377      H1384   1.084       .  S
C1378      C1379   1.416       .  A
C1379      C1386   1.509       .  S
C1380      C1381   1.405       .  A
C1380      H1385   1.084       .  S
C1381      C1382   1.417       .  A
C1382      C1383   1.509       .  S
C1383      H1387   1.111       .  S
C1383      H1388   1.110       .  S
C1383      H1389   1.109       .  S
C1386      H1390   1.109       .  S
C1386      H1391   1.110       .  S
C1386      H1392   1.111       .  S
C1393      C1394   1.407       .  A
C1393      C1398   1.403       .  A
C1393      H1400   1.084       .  S
C1394      C1395   1.419       .  A
C1395      C1402   1.509       .  S
C1395      C1396   1.402       .  A
C1396      C1397   1.405       .  A
C1396      H1401   1.084       .  S
C1397      C1398   1.417       .  A
C1398      C1399   1.509       .  S
C1399      H1403   1.111       .  S
C1399      H1404   1.110       .  S
C1399      H1405   1.110       .  S
C1402      H1406   1.110       .  S
C1402      H1407   1.110       .  S
C1402      H1408   1.111       .  S
C1409      C1410   1.405       .  A
C1409      H1416   1.084       .  S
C1410      C1411   1.417       .  A
C1411      C1418   1.509       .  S
C1412      C1413   1.405       .  A
C1412      H1417   1.084       .  S
C1413      C1414   1.417       .  A
C1414      C1415   1.508       .  S
C1415      H1419   1.111       .  S
C1415      H1420   1.109       .  S
C1415      H1421   1.110       .  S
C1418      H1422   1.110       .  S
C1418      H1423   1.110       .  S
C1418      H1424   1.111       .  S
C1425      C1426   1.406       .  A
C1425      C1430   1.405       .  A
C1425      H1432   1.084       .  S
C1426      C1427   1.417       .  A
C1427      C1434   1.508       .  S
C1427      C1428   1.404       .  A
C1428      C1429   1.405       .  A
C1428      H1433   1.084       .  S
C1429      C1430   1.418       .  A
C1430      C1431   1.508       .  S
C1431      H1435   1.111       .  S
C1431      H1436   1.110       .  S
C1431      H1437   1.109       .  S
C1434      H1438   1.110       .  S
C1434      H1439   1.110       .  S
C1434      H1440   1.111       .  S
C1441      C1446   1.403       .  A
C1441      H1448   1.084   1_556  S
C1442      C1443   1.417       .  A
C1443      C1450   1.509       .  S
C1443      C1444   1.403       .  A
C1444      H1449   1.084       .  S
C1445      C1446   1.417       .  A
C1446      C1447   1.509       .  S
C1447      H1451   1.111       .  S
C1447      H1452   1.109       .  S
C1447      H1453   1.110       .  S
C1450      H1454   1.110       .  S
C1450      H1455   1.110       .  S
C1450      H1456   1.111       .  S
C1457      C1458   1.406       .  A
C1457      C1462   1.402       .  A
C1457      H1464   1.084       .  S
C1458      C1459   1.416       .  A
C1459      C1466   1.509       .  S
C1459      C1460   1.403       .  A
C1460      C1461   1.407       .  A
C1460      H1465   1.084       .  S
C1461      C1462   1.417       .  A
C1462      C1463   1.509       .  S
C1463      H1467   1.111       .  S
C1463      H1468   1.110       .  S
C1463      H1469   1.110       .  S
C1466      H1470   1.110       .  S
C1466      H1471   1.110       .  S
C1466      H1472   1.111       .  S
C1473      C1474   1.402       .  A
C1473      H1480   1.084       .  S
C1474      C1475   1.421   1_545  A
C1475      C1482   1.505       .  S
C1476      C1477   1.410       .  A
C1476      H1481   1.080   1_545  S
C1477      C1478   1.435       .  A
C1478      C1479   1.513       .  S
C1479      H1484   1.102       .  S
C1479      H1485   1.110       .  S
C1482      H1486   1.104       .  S
C1482      H1487   1.110       .  S
C1482      H1488   1.111       .  S
C1489      C1490   1.409   1_545  A
C1489      C1494   1.415       .  A
C1489      H1496   1.080       .  S
C1490      C1491   1.434       .  A
C1491      C1498   1.513       .  S
C1491      C1492   1.409       .  A
C1492      C1493   1.403   1_565  A
C1492      H1497   1.083       .  S
C1493      C1494   1.424       .  A
C1494      C1495   1.504       .  S
C1495      H1499   1.111       .  S
C1495      H1500   1.110       .  S
C1495      H1501   1.104       .  S
C1498      H1502   1.110       .  S
C1498      H1503   1.102       .  S
C1498      H1504   1.111       .  S
C1505      C1506   1.407       .  A
C1505      C1510   1.403       .  A
C1505      H1512   1.084       .  S
C1506      C1507   1.415       .  A
C1507      C1514   1.508       .  S
C1507      C1508   1.403       .  A
C1508      C1509   1.407       .  A
C1508      H1513   1.084       .  S
C1509      C1510   1.416       .  A
C1510      C1511   1.509       .  S
C1511      H1515   1.110       .  S
C1511      H1516   1.110       .  S
C1511      H1517   1.111       .  S
C1514      H1518   1.111       .  S
C1514      H1519   1.110       .  S
C1514      H1520   1.111       .  S
C1521      C1522   1.405       .  A
C1521      H1528   1.084       .  S
C1522      C1523   1.418       .  A
C1523      C1530   1.509       .  S
C1524      C1525   1.406       .  A
C1524      H1529   1.084       .  S
C1525      C1526   1.419       .  A
C1527      H1531   1.111       .  S
C1530      H1534   1.110       .  S
C1530      H1535   1.110       .  S
C1537      C1538   1.405       .  A
C1537      C1542   1.404       .  A
C1537      H1544   1.084       .  S
C1538      C1539   1.418       .  A
C1539      C1546   1.509       .  S
C1539      C1540   1.403       .  A
C1540      C1541   1.404       .  A
C1540      H1545   1.084       .  S
C1541      C1542   1.418       .  A
C1542      C1543   1.509       .  S
C1543      H1547   1.111       .  S
C1543      H1548   1.110       .  S
C1543      H1549   1.111       .  S
C1546      H1550   1.110       .  S
C1546      H1551   1.109       .  S
C1546      H1552   1.111       .  S
C1553      C1554   1.405       .  A
C1553      H1560   1.084       .  S
C1554      C1555   1.420       .  A
C1555      C1562   1.508       .  S
C1556      C1557   1.405       .  A
C1556      H1561   1.084       .  S
C1557      C1558   1.416       .  A
C1558      C1559   1.508       .  S
C1559      H1563   1.111       .  S
C1559      H1564   1.109       .  S
C1559      H1565   1.111       .  S
C1562      H1566   1.110       .  S
C1562      H1567   1.110       .  S
C1562      H1568   1.111       .  S
C1569      C1570   1.405       .  A
C1569      H1576   1.084       .  S
C1571      C1572   1.405       .  A
C1572      C1573   1.403       .  A
C1572      H1577   1.084       .  S
C1573      C1574   1.418       .  A
C1574      C1575   1.510       .  S
C1575      H1580   1.111       .  S
C1575      H1581   1.110       .  S
C1578      H1582   1.110       .  S
C1578      H1583   1.110       .  S
C1585      C1586   1.402       .  A
C1585      C1590   1.401       .  A
C1585      H1592   1.084       .  S
C1586      C1587   1.416       .  A
C1587      C1594   1.509       .  S
C1587      C1588   1.403       .  A
C1588      C1589   1.405       .  A
C1588      H1593   1.084       .  S
C1589      C1590   1.419       .  A
C1590      C1591   1.510       .  S
C1591      H1595   1.111       .  S
C1591      H1596   1.111       .  S
C1591      H1597   1.110       .  S
C1594      H1598   1.110       .  S
C1594      H1599   1.111       .  S
C1594      H1600   1.111       .  S
C1601      H1608   1.084       .  S
C1602      C1603   1.407       .  A
C1603      C1610   1.510       .  S
C1604      C1605   1.421   1_554  A
C1604      H1609   1.074       .  S
C1606      C1607   1.509       .  S
C1607      H1611   1.111       .  S
C1607      H1612   1.106       .  S
C1610      H1615   1.108       .  S
C1610      H1616   1.111       .  S
C1617      C1618   1.410       .  A
C1617      C1622   1.415       .  A
C1617      H1624   1.081       .  S
C1619      C1626   1.513   1_455  S
C1619      C1620   1.404       .  A
C1620      H1625   1.082   1_455  S
C1621      C1622   1.424       .  A
C1622      C1623   1.506       .  S
C1623      H1627   1.111       .  S
C1623      H1628   1.110       .  S
C1623      H1629   1.105       .  S
C1626      H1630   1.110       .  S
C1626      H1631   1.103       .  S
C1626      H1632   1.111   1_655  S
