geometry optimzed in LAMMPS
_audit_creation_date              2020-11-30 
_audit_creation_method            'lammps2cif' 
_symmetry_space_group_name_H-M    'P1' 
_symmetry_Int_Tables_number       1 
_symmetry_cell_setting            triclinic 
loop_ 
_symmetry_equiv_pos_as_xyz 
  x,y,z 
_cell_length_a                    47.345250923843224 
_cell_length_b                    45.523152212653116 
_cell_length_c                    42.48247954080455 
_cell_angle_alpha                 89.62609835581978 
_cell_angle_beta                  91.27073621844798 
_cell_angle_gamma                 86.74972736874014 
loop_ 
_atom_site_label 
_atom_site_type_symbol 
_atom_site_fract_x 
_atom_site_fract_y 
_atom_site_fract_z 
_atom_site_charge 
O1          O  0.09553814  0.17315106  0.03303313    -0.80380
O2          O  0.00668824  0.10741540  0.48689035    -0.80400
O3          O  0.03357759  0.16222593  0.44940867    -0.80410
O4          O  0.04218787  0.09966677  0.07923209    -0.80350
O5          O  0.03352296  0.11507113  0.43641094    -0.80470
O6          O  0.05438634  0.14466913  0.06723450    -0.80390
O7          O  0.01237871  0.12634101  0.03285857    -0.80380
O8          O  0.06599782  0.19150463  0.49594503    -0.80420
C9          C  0.08525382  0.19496262  0.51670676     1.09310
C10         C  0.49629893  0.12049681  0.51042350     1.09200
C11         C  0.02471498  0.14182902  0.43207659     1.09330
C12         C  0.04319971  0.12679980  0.08646653     1.09210
O13         O  0.10896659  0.12242253  0.07059133    -0.80380
O14         O  0.08601644  0.08592638  0.45880018    -0.80460
O15         O  0.11391315  0.15658903  0.47813136    -0.80390
O16         O  0.03366041  0.06589103  0.02036687    -0.80370
O17         O  0.03548412  0.05957744  0.46783428    -0.80420
O18         O  0.11528279  0.11732999  0.00826105    -0.80390
O19         O  0.08977903  0.08405680  0.04901609    -0.80350
O20         O  0.08434355  0.12857846  0.43408135    -0.80420
Co21       Co  0.08449786  0.13110450  0.03529543     1.51530
Co22       Co  0.04761789  0.09664171  0.47676150     1.51690
Co23       Co  0.07313651  0.15872482  0.46619455     1.51570
Co24       Co  0.05055670  0.10619819  0.03672098     1.51470
O25         O  0.06004970  0.12982040  0.99797453    -1.42310
C26         C  0.10827666  0.09467231  0.06853113     1.09240
C27         C  0.09425771  0.10192726  0.43639096     1.09330
C28         C  0.12740398  0.13533947  0.99164739     1.09270
C29         C  0.02859720  0.05042102  0.99492507     1.09240
O30         O  0.27767776  0.06758238  0.02291616    -0.80380
O31         O  0.36498228  0.13536411  0.47672260    -0.80400
O32         O  0.33338709  0.08103384  0.43754508    -0.80410
O33         O  0.34092874  0.13337779  0.04642110    -0.80350
O34         O  0.33699735  0.12869153  0.42645185    -0.80470
O35         O  0.32496353  0.08913671  0.05192125    -0.80390
O36         O  0.35705753  0.14688741  0.02453941    -0.80380
O37         O  0.30223397  0.05096855  0.48261886    -0.80420
C38         C  0.28499370  0.04682793  0.00449560     1.09310
C39         C  0.37506560  0.14115451  0.00308897     1.09200
C40         C  0.34460229  0.10148762  0.42255848     1.09330
C41         C  0.34211052  0.10786191  0.06039551     1.09210
O42         O  0.27283389  0.11378370  0.06435759    -0.80380
O43         O  0.28500158  0.15784125  0.45295768    -0.80460
O44         O  0.25601752  0.09062358  0.46982161    -0.80390
O45         O  0.32415167  0.19153224  0.01144711    -0.80370
O46         O  0.33621355  0.18657051  0.46126713    -0.80420
O47         O  0.26095339  0.12593815  0.00388668    -0.80390
O48         O  0.28877841  0.15692992  0.05016296    -0.80350
O49         O  0.28418010  0.11838445  0.42399950    -0.80420
Co50       Co  0.29302686  0.10711597  0.02698374     1.51530
Co51       Co  0.32486730  0.14569444  0.46797659     1.51690
Co52       Co  0.29530201  0.08625996  0.45530377     1.51570
Co53       Co  0.31502662  0.14962470  0.01009618     1.51470
O54         O  0.31413636  0.10908322  0.98982776    -1.42310
C55         C  0.27374361  0.14119417  0.06871289     1.09240
C56         C  0.27494019  0.14450724  0.42940053     1.09330
C57         C  0.24556683  0.11139716  0.98607732     1.09270
C58         C  0.33602538  0.20172166  0.48692761     1.09240
O59         O  0.15172757  0.31454201  0.03883603    -0.80380
O60         O  0.23000344  0.39389093  0.46697393    -0.80400
O61         O  0.20594696  0.32791007  0.44918766    -0.80410
O62         O  0.22430433  0.37143015  0.06847555    -0.80350
O63         O  0.21217425  0.37686596  0.44777903    -0.80470
O64         O  0.20300541  0.33028078  0.06508111    -0.80390
O65         O  0.24282361  0.38133319  0.01409853    -0.80380
O66         O  0.17491892  0.29805744  0.49760093    -0.80420
C67         C  0.15738621  0.29408478  0.51939880     1.09310
C68         C  0.24986254  0.38717432  0.48660423     1.09200
C69         C  0.21765095  0.34998092  0.43725225     1.09330
C70         C  0.22317880  0.34451494  0.07612272     1.09210
O71         O  0.15400568  0.36110605  0.08212158    -0.80380
O72         O  0.16220344  0.40863648  0.45757733    -0.80460
O73         O  0.12974064  0.34036529  0.48654281    -0.80390
O74         O  0.21734069  0.43030168  0.03820194    -0.80370
O75         O  0.20385150  0.43727282  0.48797553    -0.80420
O76         O  0.13684007  0.37347320  0.02261040    -0.80390
O77         O  0.16836835  0.40186284  0.05849734    -0.80350
O78         O  0.15776079  0.36445483  0.43851676    -0.80420
Co79       Co  0.17029585  0.35244071  0.04319095     1.51530
Co80       Co  0.19288846  0.39583440  0.48834524     1.51690
Co81       Co  0.16890290  0.33372368  0.47050014     1.51570
Co82       Co  0.20438527  0.39044872  0.03089676     1.51470
O83         O  0.18955471  0.35554848  0.50537845    -1.42310
C84         C  0.15388712  0.38903541  0.08018439     1.09240
C85         C  0.15238797  0.39195491  0.43706580     1.09330
C86         C  0.12051397  0.36133586  0.50366966     1.09270
C87         C  0.21583095  0.44668520  0.51328530     1.09240
O88         O  0.43929474  0.44542265  0.00634546    -0.80380
O89         O  0.38267785  0.38278012  0.47163333    -0.80400
O90         O  0.41630483  0.40533107  0.43374872    -0.80410
O91         O  0.40739657  0.36699812  0.06361676    -0.80350
O92         O  0.40578686  0.36073042  0.41973194    -0.80470
O93         O  0.40920671  0.41487125  0.05179302    -0.80390
O94         O  0.38049289  0.35699151  0.01390801    -0.80380
O95         O  0.46488676  0.43014996  0.46677035    -0.80420
C96         C  0.45716180  0.45046788  0.48550372     1.09310
C97         C  0.36835646  0.37223161  0.99254168     1.09200
C98         C  0.40210075  0.38838451  0.41527258     1.09330
C99         C  0.39884143  0.39406389  0.06727032     1.09210
O100        O  0.45982180  0.38100249  0.06776932    -0.80380
O101        O  0.45851975  0.34495073  0.44531328    -0.80460
O102        O  0.48570547  0.37365574  0.48516043    -0.80390
O103        O  0.41198584  0.31030762  0.02788293    -0.80370
O104        O  0.40758421  0.32204981  0.47603321    -0.80420
O105        O  0.48860449  0.40776232  0.02137215    -0.80390
O106        O  0.46091402  0.33979778  0.04087457    -0.80350
O107        O  0.47065809  0.38606226  0.42358824    -0.80420
Co108      Co  0.44804265  0.41141953  0.03488621     1.51530
Co109      Co  0.42019397  0.36444810  0.46200720     1.51690
Co110      Co  0.45122730  0.38970973  0.46208515     1.51570
Co111      Co  0.42192077  0.34924828  0.02308317     1.51470
O112        O  0.43248045  0.38401369  0.00252011    -1.42310
C113        C  0.46922540  0.35459781  0.06428162     1.09240
C114        C  0.47433864  0.35848618  0.42583540     1.09330
C115        C  0.50000337  0.38717697  0.00504422     1.09270
C116        C  0.40492165  0.30353722  0.99955730     1.09240
O117        O  0.21135705  0.12466466  0.19386070    -0.80380
O118        O  0.17498704  0.14380363  0.32413877    -0.80400
O119        O  0.17573671  0.17469792  0.23975852    -0.80410
O120        O  0.24396465  0.12019925  0.25868357    -0.80350
O121        O  0.14216311  0.16366917  0.27206588    -0.80470
O122        O  0.23986515  0.08353318  0.22680213    -0.80390
O123        O  0.21319771  0.14850791  0.29904856    -0.80380
O124        O  0.17558325  0.15490769  0.17764392    -0.80420
C125        C  0.20081154  0.14418981  0.17398080     1.09310
C126        C  0.19987550  0.15358318  0.32329216     1.09200
C127        C  0.15446001  0.18263029  0.25626288     1.09330
C128        C  0.25405021  0.10394647  0.23753124     1.09210
O129        O  0.19158395  0.05494138  0.24732983    -0.80380
O130        O  0.12970678  0.10430915  0.25475712    -0.80460
O131        O  0.16280704  0.09919651  0.19121032    -0.80390
O132        O  0.19605911  0.09375381  0.33012512    -0.80370
O133        O  0.15932760  0.08320935  0.30361175    -0.80420
O134        O  0.19954005  0.06789884  0.18411035    -0.80390
O135        O  0.22590478  0.06448080  0.28113217    -0.80350
O136        O  0.13134164  0.13886138  0.21921782    -0.80420
Co137      Co  0.19787190  0.09026699  0.22209922     1.51530
Co138      Co  0.15281712  0.12299855  0.28703713     1.51690
Co139      Co  0.17385898  0.13596986  0.21825270     1.51570
Co140      Co  0.21838281  0.10713124  0.29051068     1.51470
O141        O  0.18586821  0.11474275  0.25902607    -1.42310
C142        C  0.21278037  0.04620876  0.26450252     1.09240
C143        C  0.11792527  0.11902170  0.23262997     1.09330
C144        C  0.17536778  0.07849305  0.17510086     1.09270
C145        C  0.17112830  0.08428455  0.32987645     1.09240
O146        O  0.40966131  0.12589387  0.19031770    -0.80380
O147        O  0.44871892  0.10163017  0.32790627    -0.80400
O148        O  0.45305176  0.05934254  0.24408648    -0.80410
O149        O  0.37853398  0.11642024  0.25856620    -0.80350
O150        O  0.48150332  0.07612990  0.28122679    -0.80470
O151        O  0.37797022  0.15641516  0.23093540    -0.80390
O152        O  0.41284606  0.09189387  0.29985943    -0.80380
O153        O  0.42300430  0.07866523  0.18883088    -0.80420
C154        C  0.40893593  0.10095336  0.17653008     1.09310
C155        C  0.42524522  0.08971468  0.32583230     1.09200
C156        C  0.47345526  0.05514821  0.26403317     1.09330
C157        C  0.36634396  0.13333178  0.23886087     1.09210
O158        O  0.42487411  0.18967676  0.25134711    -0.80380
O159        O  0.99239109  0.13267401  0.25828961    -0.80460
O160        O  0.46140981  0.11344169  0.19513100    -0.80390
O161        O  0.42449574  0.15021639  0.32787798    -0.80370
O162        O  0.45991278  0.16002338  0.29996347    -0.80420
O163        O  0.45665203  0.16125516  0.20228932    -0.80390
O164        O  0.39091187  0.17620684  0.28188765    -0.80350
O165        O  0.97994833  0.09910213  0.22330751    -0.80420
Co166      Co  0.41961023  0.15673903  0.22265412     1.51530
Co167      Co  0.46894568  0.11877615  0.28988441     1.51690
Co168      Co  0.43516818  0.09758180  0.22765076     1.51570
Co169      Co  0.40281521  0.13305136  0.29037134     1.51470
O170        O  0.43486720  0.12773081  0.25955122    -1.42310
C171        C  0.40383922  0.19656319  0.26826503     1.09240
C172        C  0.99888149  0.11531153  0.23670462     1.09330
C173        C  0.46632369  0.13966849  0.18616489     1.09270
C174        C  0.44846260  0.16121087  0.32601670     1.09240
O175        O  0.03334953  0.36146393  0.19225022    -0.80380
O176        O  0.07303725  0.34268363  0.32726011    -0.80400
O177        O  0.10080091  0.31748660  0.22762563    -0.80410
O178        O  0.50599221  0.36492223  0.25835601    -0.80350
O179        O  0.09712268  0.31360555  0.27876683    -0.80470
O180        O  0.50689662  0.40108799  0.22482906    -0.80390
O181        O  0.03260806  0.33872177  0.30445307    -0.80380
O182        O  0.06814526  0.33133273  0.17788744    -0.80420
C183        C  0.04401443  0.34355021  0.17175874     1.09310
C184        C  0.04814778  0.33400845  0.32810497     1.09200
C185        C  0.10455236  0.30270597  0.25286903     1.09330
C186        C  0.49333236  0.38157967  0.23875660     1.09210
O187        O  0.05618172  0.43147835  0.24371111    -0.80380
O188        O  0.12384927  0.36602598  0.26093716    -0.80460
O189        O  0.08742610  0.38186744  0.19180073    -0.80390
O190        O  0.05507822  0.39502039  0.32757286    -0.80370
O191        O  0.09300865  0.39729838  0.30062894    -0.80420
O192        O  0.05179986  0.41492084  0.18106495    -0.80390
O193        O  0.02338206  0.42270966  0.27812708    -0.80350
O194        O  0.10461945  0.37149961  0.21286622    -0.80420
Co195      Co  0.04956736  0.39436781  0.22071683     1.51530
Co196      Co  0.09484612  0.35594054  0.28946145     1.51690
Co197      Co  0.06946009  0.34849526  0.21937483     1.51570
Co198      Co  0.03052215  0.37980173  0.29032050     1.51470
O199        O  0.06181994  0.36937745  0.25991350    -1.42310
C200        C  0.03656484  0.44083322  0.26176457     1.09240
C201        C  0.12487060  0.37472122  0.23311421     1.09330
C202        C  0.07639482  0.40397775  0.17467334     1.09270
C203        C  0.08105888  0.40128832  0.32613963     1.09240
O204        O  0.33136522  0.40652194  0.19415183    -0.80380
O205        O  0.29435182  0.42479744  0.31289770    -0.80400
O206        O  0.26734901  0.42300209  0.21435312    -0.80410
O207        O  0.36533206  0.35665254  0.27981319    -0.80350
O208        O  0.30103938  0.43490324  0.24780843    -0.80470
O209        O  0.36050237  0.39039712  0.24399115    -0.80390
O210        O  0.33268305  0.39912145  0.29994023    -0.80380
O211        O  0.29622329  0.39225199  0.16709219    -0.80420
C212        C  0.31957405  0.40476934  0.16783430     1.09310
C213        C  0.32003248  0.41650567  0.31915017     1.09200
C214        C  0.27987092  0.44243830  0.23016669     1.09330
C215        C  0.37638184  0.37576490  0.26254628     1.09210
O216        O  0.35308215  0.32789720  0.23093764    -0.80380
O217        O  0.25108714  0.40744278  0.26749393    -0.80460
O218        O  0.28241100  0.33767597  0.19829722    -0.80390
O219        O  0.31846176  0.34608414  0.32598886    -0.80370
O220        O  0.28083345  0.36778532  0.30308812    -0.80420
O221        O  0.32296638  0.34441265  0.17695675    -0.80390
O222        O  0.32084207  0.31847436  0.26613572    -0.80350
O223        O  0.25496867  0.36698745  0.24261784    -0.80420
Co224      Co  0.34128050  0.36800185  0.21267281     1.51530
Co225      Co  0.29393697  0.40111681  0.27462381     1.51690
Co226      Co  0.27594473  0.37943289  0.20714546     1.51570
Co227      Co  0.32215165  0.35903581  0.28190034     1.51470
O228        O  0.30793229  0.37488284  0.23905517    -1.42310
C229        C  0.34172422  0.30983983  0.24943405     1.09240
C230        C  0.23909147  0.38680495  0.25357065     1.09330
C231        C  0.29910401  0.33244322  0.17634193     1.09270
C232        C  0.29217985  0.35454785  0.32738431     1.09240
C233        C  0.44525200  0.40449721  0.23546967    -0.12510
C234        C  0.46263504  0.37879922  0.23673314     0.04500
C235        C  0.45126334  0.35189998  0.24634389    -0.07800
C236        C  0.42383209  0.35233760  0.25790563    -0.08540
C237        C  0.40682745  0.37831697  0.25822589    -0.03090
C238        C  0.41738388  0.40467738  0.24580357     0.03730
N239        N  0.40034144  0.43186916  0.24365660     0.66230
H240        H  0.45399394  0.42502798  0.22861597     0.15130
H241        H  0.41508269  0.33188235  0.26499842     0.14840
N242        N  0.46751235  0.32412395  0.24529970     0.73940
O243        O  0.40414693  0.45006163  0.22179300    -0.39510
O244        O  0.38319501  0.43900360  0.26494926    -0.39460
O245        O  0.48630584  0.31963736  0.22501376    -0.40160
O246        O  0.46154809  0.30306734  0.26298396    -0.40230
C247        C  0.19019255  0.41130565  0.25072538    -0.12510
C248        C  0.20869533  0.38699031  0.24460055     0.04500
C249        C  0.19857189  0.36358423  0.22630730    -0.07800
C250        C  0.17105208  0.36537931  0.21408726    -0.08540
C251        C  0.15165188  0.38661035  0.22491546    -0.03090
C252        C  0.16131787  0.41100663  0.24185861     0.03730
N253        N  0.14180802  0.43458290  0.25137619     0.66230
H254        H  0.19797639  0.42984817  0.26345373     0.15130
H255        H  0.16348194  0.34700611  0.20083895     0.14840
N256        N  0.21495893  0.33653524  0.22200082     0.73940
O257        O  0.14937681  0.45337965  0.27111397    -0.39510
O258        O  0.11747110  0.43786308  0.23866184    -0.39460
O259        O  0.22379362  0.32146663  0.24568482    -0.40160
O260        O  0.21533072  0.32489868  0.19519801    -0.40230
C261        C  0.49271116  0.01005294  0.23636694    -0.12510
C262        C  0.49043521  0.02601414  0.26453884     0.04500
C263        C  0.00676285  0.01513942  0.29107418    -0.07800
C264        C  0.02328318  0.98828821  0.28914649    -0.08540
C265        C  0.02515629  0.47229224  0.26101573    -0.03090
C266        C  0.01010526  0.98400396  0.23423037     0.03730
N267        N  0.51223617  0.46975204  0.20445661     0.66230
H268        H  0.48152207  0.01835329  0.21532497     0.15130
H269        H  0.03400204  0.97928066  0.31016255     0.14840
N270        N  0.00574530  0.03008790  0.32063178     0.73940
O271        O  0.49007752  0.46238062  0.19021861    -0.39510
O272        O  0.03465148  0.47161111  0.18924791    -0.39460
O273        O  0.48216246  0.03802232  0.33196960    -0.40160
O274        O  0.02790941  0.03140964  0.33752780    -0.40230
C275        C  0.38273198  0.27447227  0.23979936    -0.12510
C276        C  0.35654463  0.28010691  0.25442926     0.04500
C277        C  0.34781814  0.25910145  0.27640692    -0.07800
C278        C  0.36529513  0.23360912  0.28306230    -0.08540
C279        C  0.39074172  0.22735673  0.26718397    -0.03090
C280        C  0.39995418  0.24890519  0.24609591     0.03730
N281        N  0.42680946  0.24559918  0.23103784     0.66230
H282        H  0.39057567  0.29057101  0.22378392     0.15130
H283        H  0.35792566  0.21762587  0.29951848     0.14840
N284        N  0.32089553  0.26244935  0.29122890     0.73940
O285        O  0.42878696  0.25260173  0.20239332    -0.39510
O286        O  0.44914311  0.24063054  0.24746191    -0.39460
O287        O  0.29857578  0.26615139  0.27451524    -0.40160
O288        O  0.31893933  0.25632062  0.32009610    -0.40230
C289        C  0.22119651  0.50274058  0.23036647    -0.12510
C290        C  0.22743200  0.51713068  0.25864146     0.04500
C291        C  0.25224336  0.50779368  0.27603660    -0.07800
C292        C  0.27062018  0.48571202  0.26399139    -0.08540
C293        C  0.26442976  0.47120783  0.23575312    -0.03090
C294        C  0.23943640  0.48027919  0.21849647     0.03730
N295        N  0.23254313  0.46764438  0.18856159     0.66230
H296        H  0.20283371  0.51023239  0.21622784     0.15130
H297        H  0.28908526  0.47856950  0.27813508     0.14840
N298        N  0.25893649  0.02004310  0.30624030     0.73940
O299        O  0.20698760  0.46553123  0.18020653    -0.39510
O300        O  0.25157676  0.46274872  0.16861046    -0.39460
O301        O  0.23997956  0.02364621  0.32652589    -0.40160
O302        O  0.28432841  0.02396397  0.31406680    -0.40230
C303        C  0.15488510  0.23554101  0.23924270    -0.12510
C304        C  0.14142422  0.21341225  0.25532509     0.04500
C305        C  0.11518754  0.22122568  0.27001889    -0.07800
C306        C  0.10389926  0.25033627  0.26866870    -0.08540
C307        C  0.11744407  0.27219047  0.25270003    -0.03090
C308        C  0.14335931  0.26473485  0.23826507     0.03730
N309        N  0.15987079  0.28725081  0.22619136     0.66230
H310        H  0.17508329  0.23044160  0.22846475     0.15130
H311        H  0.08394784  0.25586046  0.27986827     0.14840
N312        N  0.09910321  0.20016522  0.28598600     0.73940
O313        O  0.16561104  0.30826472  0.24396066    -0.39510
O314        O  0.17316003  0.28330126  0.20100781    -0.39460
O315        O  0.09041632  0.20581151  0.31329604    -0.40160
O316        O  0.08756155  0.18050160  0.27028635    -0.40230
C317        C  0.28805650  0.14027394  0.22570693    -0.12510
C318        C  0.28189373  0.11044545  0.22593936     0.04500
C319        C  0.30390584  0.08856150  0.22301441    -0.07800
C320        C  0.33185558  0.09708251  0.22440191    -0.08540
C321        C  0.33785878  0.12677371  0.22821138    -0.03090
C322        C  0.31576642  0.14870073  0.22692270     0.03730
N323        N  0.32067792  0.17906029  0.23190581     0.66230
H324        H  0.27112668  0.15718542  0.22784203     0.15130
H325        H  0.34905185  0.08031170  0.22441302     0.14840
N326        N  0.29851204  0.05784122  0.22168364     0.73940
O327        O  0.30926532  0.19833861  0.21348387    -0.39510
O328        O  0.33012481  0.18685525  0.25834583    -0.39460
O329        O  0.28048476  0.04893927  0.20216007    -0.40160
O330        O  0.31474639  0.03915408  0.23623054    -0.40230
C331        C  0.07109395  0.13974179  0.21558476    -0.12510
C332        C  0.08776959  0.11499485  0.22564985     0.04500
C333        C  0.07439358  0.08887127  0.23380632    -0.07800
C334        C  0.04489715  0.08891151  0.23315302    -0.08540
C335        C  0.02846474  0.11482047  0.22723778    -0.03090
C336        C  0.04169941  0.14070622  0.21806411     0.03730
N337        N  0.02614116  0.16825884  0.21162677     0.66230
H338        H  0.08107885  0.15971555  0.20920573     0.15130
H339        H  0.03483173  0.06928454  0.24058287     0.14840
N340        N  0.08987566  0.06266482  0.24483812     0.73940
O341        O  0.03333708  0.18417552  0.18904438    -0.39510
O342        O  0.00978677  0.17955627  0.23182592    -0.39460
O343        O  0.09927615  0.06162091  0.27287453    -0.40160
O344        O  0.08558370  0.03868948  0.23129670    -0.40230
C345        C  0.04385566  0.34428073  0.38409510    -0.12510
C346        C  0.03462805  0.32800933  0.35850205     0.04500
C347        C  0.50797836  0.31532724  0.35994285    -0.07800
C348        C  0.48984045  0.32302952  0.38490069    -0.08540
C349        C  0.49727957  0.34379224  0.40744648    -0.03090
C350        C  0.02526705  0.35396427  0.40750328     0.03730
N351        N  0.03532230  0.37529293  0.42942822     0.66230
H352        H  0.06438741  0.35361599  0.38330556     0.15130
H353        H  0.46878866  0.31485743  0.38515133     0.14840
N354        N  0.49854428  0.29604105  0.33556621     0.73940
O355        O  0.06137904  0.37459516  0.43656934    -0.39510
O356        O  0.52074204  0.39864610  0.43486857    -0.39460
O357        O  0.51625648  0.28155053  0.31914037    -0.40160
O358        O  0.47261199  0.29138563  0.33218427    -0.40230
C359        C  0.01798587  0.34097417  0.08539070    -0.12510
C360        C  0.48861888  0.34164451  0.08950411     0.04500
C361        C  0.47848425  0.33743898  0.12010928    -0.07800
C362        C  0.49766776  0.33631779  0.14590403    -0.08540
C363        C  0.02702517  0.33790350  0.14238335    -0.03090
C364        C  0.03762726  0.33874223  0.11113891     0.03730
N365        N  0.06744354  0.33945496  0.10444765     0.66230
H366        H  0.02564594  0.34464369  0.06205216     0.15130
H367        H  0.48940621  0.33512815  0.16931527     0.14840
N368        N  0.44873582  0.33503402  0.12545246     0.73940
O369        O  0.07592245  0.33443070  0.07692086    -0.39510
O370        O  0.08523020  0.34721749  0.12479427    -0.39460
O371        O  0.43321711  0.32374702  0.10480746    -0.40160
O372        O  0.43874760  0.34012465  0.15231779    -0.40230
C373        C  0.32975024  0.40168170  0.37316769    -0.12510
C374        C  0.33544498  0.42162024  0.34942220     0.04500
C375        C  0.36226954  0.43414406  0.35021685    -0.07800
C376        C  0.38319763  0.42400119  0.37291247    -0.08540
C377        C  0.37872952  0.40031691  0.39332646    -0.03090
C378        C  0.35124850  0.38903538  0.39312028     0.03730
N379        N  0.34465419  0.36362228  0.41117161     0.66230
H380        H  0.30927075  0.39237841  0.37299772     0.15130
H381        H  0.40365157  0.43352502  0.37355097     0.14840
N382        N  0.36848680  0.45699232  0.32822952     0.73940
O383        O  0.32015567  0.36260999  0.42200832    -0.39510
O384        O  0.35857934  0.33957223  0.40707632    -0.39460
O385        O  0.34880518  0.47063359  0.31262770    -0.40160
O386        O  0.39338345  0.46530661  0.32610430    -0.40230
C387        C  0.34882384  0.40341195  0.08422328    -0.12510
C388        C  0.37800305  0.40178611  0.09169314     0.04500
C389        C  0.38708983  0.40745515  0.12269542    -0.07800
C390        C  0.36690582  0.41071064  0.14610467    -0.08540
C391        C  0.33757188  0.40922163  0.13972419    -0.03090
C392        C  0.32824046  0.40816292  0.10775008     0.03730
N393        N  0.29880563  0.41345999  0.09858565     0.66230
H394        H  0.34220947  0.40109421  0.05984030     0.15130
H395        H  0.37461637  0.41349964  0.17002050     0.14840
N396        N  0.41662015  0.40947028  0.13106710     0.73940
O397        O  0.28123287  0.42398574  0.11796485    -0.39510
O398        O  0.29132952  0.41304203  0.06987763    -0.39460
O399        O  0.42542767  0.40337739  0.15874958    -0.40160
O400        O  0.43302684  0.42147013  0.11251694    -0.40230
C401        C  0.23244801  0.36830779  0.38632094    -0.12510
C402        C  0.23742992  0.34682057  0.40967998     0.04500
C403        C  0.26124369  0.32614965  0.40584632    -0.07800
C404        C  0.27895497  0.32897338  0.37904094    -0.08540
C405        C  0.27344226  0.35088567  0.35572952    -0.03090
C406        C  0.24929394  0.37039015  0.35996914     0.03730
N407        N  0.24110545  0.39332380  0.33802196     0.66230
H408        H  0.21480414  0.38436292  0.38847218     0.15130
H409        H  0.29722089  0.31389638  0.37621225     0.14840
N410        N  0.26870100  0.30294016  0.42845771     0.73940
O411        O  0.22024473  0.38953089  0.31982717    -0.39510
O412        O  0.24675892  0.41930428  0.34484832    -0.39460
O413        O  0.25320931  0.29789733  0.45138815    -0.40160
O414        O  0.29080120  0.28650368  0.42502392    -0.40230
C415        C  0.29404772  0.33369767  0.11838461    -0.12510
C416        C  0.28648395  0.32093594  0.14675818     0.04500
C417        C  0.26070012  0.30629589  0.14719619    -0.07800
C418        C  0.23973450  0.31315204  0.12348023    -0.08540
C419        C  0.24587021  0.33072491  0.09754809    -0.03090
C420        C  0.27437982  0.33698511  0.09322162     0.03730
N421        N  0.28381917  0.34360088  0.06246522     0.66230
H422        H  0.31475286  0.34241195  0.11631931     0.15130
H423        H  0.21862122  0.30547922  0.12562526     0.14840
N424        N  0.25577854  0.28472796  0.17122814     0.73940
O425        O  0.30688956  0.35564566  0.05899345    -0.39510
O426        O  0.27324757  0.33024013  0.03956451    -0.39460
O427        O  0.23377970  0.27028839  0.16989158    -0.40160
O428        O  0.27510395  0.27682871  0.19097121    -0.40230
C429        C  0.14542753  0.39039557  0.38058146    -0.12510
C430        C  0.13648650  0.40318199  0.40853720     0.04500
C431        C  0.10993314  0.41931516  0.40868064    -0.07800
C432        C  0.09156350  0.41869341  0.38181153    -0.08540
C433        C  0.10010405  0.40381500  0.35440602    -0.03090
C434        C  0.12795999  0.39029099  0.35403271     0.03730
N435        N  0.13834542  0.37348738  0.32800420     0.66230
H436        H  0.16563461  0.37796855  0.37999229     0.15130
H437        H  0.07088522  0.43014258  0.38212300     0.14840
N438        N  0.10186034  0.43708476  0.43505464     0.73940
O439        O  0.15784940  0.38341108  0.31197705    -0.39510
O440        O  0.13480853  0.34622267  0.32754504    -0.39460
O441        O  0.11927570  0.45429158  0.44657484    -0.40160
O442        O  0.07613495  0.44053272  0.44214333    -0.40230
C443        C  0.12305459  0.41752012  0.15521007    -0.12510
C444        C  0.09394889  0.41498111  0.14877130     0.04500
C445        C  0.08484349  0.41315772  0.11702369    -0.07800
C446        C  0.10525955  0.40703477  0.09388647    -0.08540
C447        C  0.13441861  0.40596365  0.10110789    -0.03090
C448        C  0.14343814  0.41351448  0.13164045     0.03730
N449        N  0.17314458  0.41474091  0.13942595     0.66230
H450        H  0.13000046  0.42086699  0.17918826     0.15130
H451        H  0.09836786  0.40087714  0.07065545     0.14840
N452        N  0.05521819  0.41501439  0.10840858     0.73940
O453        O  0.18207365  0.41085916  0.16740205    -0.39510
O454        O  0.19040064  0.42167311  0.11877293    -0.39300
O455        O  0.03843005  0.43271079  0.12247562    -0.40160
O456        O  0.04661236  0.40301647  0.08357542    -0.40230
C457        C  0.32547268  0.40323229  0.48060732    -0.12510
C458        C  0.33764230  0.37578912  0.99009355     0.04500
C459        C  0.32086001  0.35114179  0.99060846    -0.07800
C460        C  0.29207112  0.35502269  0.98334479    -0.08540
C461        C  0.27941255  0.38296985  0.47795690    -0.03090
C462        C  0.29639741  0.40703634  0.47401642     0.03730
N463        N  0.28486092  0.43476452  0.46203672     0.66230
H464        H  0.33887497  0.42153767  0.47767086     0.15130
H465        H  0.27900349  0.33634831  0.98417020     0.14840
N466        N  0.33237045  0.32217320  0.99848152     0.73940
O467        O  0.29845928  0.45753957  0.46606131    -0.39510
O468        O  0.26491024  0.43540948  0.44179610    -0.39460
O469        O  0.34309324  0.31724372  0.02557956    -0.40160
O470        O  0.32518957  0.30066253  0.98214566    -0.40230
C471        C  0.07179721  0.34669658  0.49871891    -0.12510
C472        C  0.08995078  0.36951295  0.50377652     0.04500
C473        C  0.07832068  0.39825849  0.01051401    -0.07800
C474        C  0.04880712  0.40266182  0.01262996    -0.08540
C475        C  0.03073572  0.37981774  0.00719505    -0.03090
C476        C  0.04250597  0.35143236  0.49973622     0.03730
N477        N  0.02536572  0.32724104  0.49229057     0.66230
H478        H  0.08048400  0.32465060  0.49399916     0.15130
H479        H  0.03967318  0.42457622  0.01702434     0.14840
N480        N  0.09544950  0.42332193  0.01456070     0.73940
O481        O  0.03225397  0.31006215  0.47018006    -0.39510
O482        O  0.50663459  0.31990333  0.01092825    -0.39460
O483        O  0.11925912  0.42420851  0.50202668    -0.40160
O484        O  0.08560031  0.44605436  0.02832705    -0.40230
C485        C  0.26528488  0.16191178  0.37482971    -0.12510
C486        C  0.25499263  0.15904480  0.40518647     0.04500
C487        C  0.22528757  0.16345900  0.40899149    -0.07800
C488        C  0.20676455  0.16282815  0.38212954    -0.08540
C489        C  0.21730059  0.16284432  0.35148563    -0.03090
C490        C  0.24700931  0.16611022  0.34845480     0.03730
N491        N  0.25917383  0.17267717  0.31865972     0.66230
H492        H  0.28796920  0.16048486  0.37158652     0.15130
H493        H  0.18412885  0.16242717  0.38508152     0.14840
N494        N  0.21384521  0.17085103  0.43908533     0.73940
O495        O  0.24799409  0.19309532  0.30148524    -0.39510
O496        O  0.28307115  0.16118292  0.31155481    -0.39460
O497        O  0.22927625  0.18231728  0.45969899    -0.40160
O498        O  0.18736603  0.17268483  0.44234792    -0.40230
C499        C  0.22801848  0.16169689  0.09161449    -0.12510
C500        C  0.25712705  0.15367480  0.09565046     0.04500
C501        C  0.26755515  0.14818937  0.12648035    -0.07800
C502        C  0.24879426  0.14703942  0.15153641    -0.08540
C503        C  0.21939186  0.15241265  0.14737588    -0.03090
C504        C  0.20919408  0.16154619  0.11715110     0.03730
N505        N  0.17976144  0.16897939  0.11147441     0.66230
H506        H  0.21945293  0.16606545  0.06826520     0.15130
H507        H  0.25727341  0.14099108  0.17446883     0.14840
N508        N  0.29730761  0.14325820  0.13242977     0.73940
O509        O  0.17190066  0.19428550  0.10124695    -0.39510
O510        O  0.16169042  0.14998813  0.11523089    -0.39460
O511        O  0.31401189  0.16079901  0.12084036    -0.40160
O512        O  0.30658417  0.12422834  0.15239026    -0.40230
C513        C  0.39479030  0.09348814  0.40759753    -0.12510
C514        C  0.36592457  0.09317708  0.39924672     0.04500
C515        C  0.35776287  0.08482785  0.36872541    -0.07800
C516        C  0.37869833  0.07930299  0.34657506    -0.08540
C517        C  0.40756176  0.08336462  0.35341476    -0.03090
C518        C  0.41595766  0.08840494  0.38505545     0.03730
N519        N  0.44535391  0.08804473  0.39468413     0.66230
H520        H  0.40073599  0.09804602  0.43177063     0.15130
H521        H  0.37188586  0.07396233  0.32288255     0.14840
N522        N  0.32843259  0.08373217  0.35912385     0.73940
O523        O  0.45265348  0.10006398  0.42004239    -0.39510
O524        O  0.46335256  0.07139958  0.38107049    -0.39460
O525        O  0.32062445  0.09079846  0.33134208    -0.40160
O526        O  0.31067475  0.07343059  0.37731367    -0.40230
C527        C  0.36789922  0.12855170  0.10366540    -0.12510
C528        C  0.36224425  0.10305331  0.08746803     0.04500
C529        C  0.37366220  0.07559064  0.09949058    -0.07800
C530        C  0.38920264  0.07492559  0.12858668    -0.08540
C531        C  0.39264271  0.10084067  0.14595500    -0.03090
C532        C  0.38089649  0.12788078  0.13298556     0.03730
N533        N  0.37901621  0.15492618  0.15007812     0.66230
H534        H  0.35993661  0.14982813  0.09471129     0.15130
H535        H  0.39852033  0.05423021  0.13769057     0.14840
N536        N  0.37105782  0.04881908  0.08210798     0.73940
O537        O  0.38794161  0.17776636  0.13764148    -0.39510
O538        O  0.36024570  0.15805043  0.17054358    -0.39460
O539        O  0.37066440  0.04926400  0.05238262    -0.40160
O540        O  0.37296991  0.02426882  0.09622630    -0.40230
C541        C  0.26039193  0.51060896  0.03596009    -0.12510
C542        C  0.26936610  0.01966440  0.00625596     0.04500
C543        C  0.25758862  0.00696830  0.47894695    -0.07800
C544        C  0.23808744  0.48514760  0.48229061    -0.08540
C545        C  0.23095061  0.47439683  0.51198913    -0.03090
C546        C  0.24145093  0.48825107  0.03910102     0.03730
N547        N  0.23147653  0.48165176  0.06974234     0.66230
H548        H  0.26775046  0.52143782  0.05700961     0.15130
H549        H  0.22944193  0.97555498  0.46118249     0.14840
N550        N  0.26460702  0.01599137  0.44766331     0.73940
O551        O  0.24220667  0.45968974  0.08482813    -0.39510
O552        O  0.21664035  0.50092576  0.08412673    -0.39460
O553        O  0.29004907  0.01428574  0.43927716    -0.40160
O554        O  0.24538894  0.01883976  0.42661276    -0.40230
C555        C  0.36272470  0.24217603  0.46266504    -0.12510
C556        C  0.35265063  0.22861919  0.98976939     0.04500
C557        C  0.36216067  0.23845111  0.01954342    -0.07800
C558        C  0.38034734  0.26150544  0.02155027    -0.08540
C559        C  0.38997033  0.27568482  0.99465386    -0.03090
C560        C  0.38167228  0.26507210  0.46463606     0.03730
N561        N  0.39292682  0.27623427  0.43607366     0.66230
H562        H  0.35666922  0.23411707  0.43969577     0.15130
H563        H  0.38650511  0.26869879  0.04484642     0.14840
N564        N  0.35461295  0.22464838  0.04829411     0.73940
O565        O  0.41910659  0.27977015  0.43435301    -0.39510
O566        O  0.37798991  0.27719363  0.91105533    -0.39460
O567        O  0.36753563  0.20083360  0.55687702    -0.40160
O568        O  0.34028088  0.23927973  0.06809202    -0.40230
C569        C  0.48340160  0.17097471  0.40715802    -0.12510
C570        C  0.00552413  0.14899822  0.40505548     0.04500
C571        C  0.00963079  0.13422159  0.37641658    -0.07800
C572        C  0.99160225  0.14105062  0.35117883    -0.08540
C573        C  0.46792036  0.16080507  0.35362096    -0.03090
C574        C  0.46397231  0.17692524  0.38171743     0.03730
N575        N  0.44151389  0.19954074  0.38464077     0.66230
H576        H  0.48096182  0.18296304  0.42895109     0.15130
H577        H  0.99564991  0.12922287  0.32959669     0.14840
N578        N  0.03211736  0.11225810  0.37202084     0.73940
O579        O  0.43844377  0.21327438  0.41018352    -0.39510
O580        O  0.42561618  0.20719156  0.36142652    -0.39460
O581        O  0.02978503  0.08673999  0.38311191    -0.40160
O582        O  0.04885081  0.11545525  0.34969690    -0.40230
C583        C  0.50904553  0.16101460  0.11428966    -0.12510
C584        C  0.02911259  0.13701194  0.11493383     0.04500
C585        C  0.03002604  0.11730462  0.14006298    -0.07800
C586        C  0.00743338  0.11748673  0.15979890    -0.08540
C587        C  0.48757319  0.14159730  0.16113907    -0.03090
C588        C  0.48854591  0.16425565  0.13802357     0.03730
N589        N  0.46784526  0.18865620  0.13613982     0.66230
H590        H  0.50815619  0.17596217  0.09430227     0.15130
H591        H  0.00644925  0.09868549  0.17512377     0.14840
N592        N  0.05391448  0.09690363  0.14540915     0.73940
O593        O  0.47295659  0.21158963  0.12090240    -0.39510
O594        O  0.44334186  0.18634392  0.14651872    -0.39460
O595        O  0.07851613  0.10582035  0.14276813    -0.40160
O596        O  0.05084254  0.07214907  0.15803865    -0.40230
C597        C  0.15466290  0.06632193  0.38390170    -0.12510
C598        C  0.15198806  0.08596533  0.35799011     0.04500
C599        C  0.12828759  0.10638091  0.35747376    -0.07800
C600        C  0.11076771  0.10926678  0.38305177    -0.08540
C601        C  0.11373042  0.09148005  0.41007530    -0.03090
C602        C  0.13519411  0.06774559  0.40948618     0.03730
N603        N  0.13804041  0.04498835  0.43344579     0.66230
H604        H  0.17163605  0.04935602  0.38382619     0.15130
H605        H  0.09389179  0.12629084  0.38105528     0.14840
N606        N  0.12049766  0.12454407  0.33080949     0.73940
O607        O  0.15201432  0.02117084  0.42801630    -0.39510
O608        O  0.12745918  0.04837857  0.46022321    -0.39460
O609        O  0.10444201  0.11426286  0.31007299    -0.40160
O610        O  0.11979075  0.15208904  0.33425053    -0.40230
C611        C  0.17376470  0.07877514  0.11718625    -0.12510
C612        C  0.16174668  0.06947138  0.14509349     0.04500
C613        C  0.13434511  0.05836694  0.14355327    -0.07800
C614        C  0.11800912  0.06209023  0.11526857    -0.08540
C615        C  0.12852176  0.07631870  0.08895377    -0.03090
C616        C  0.15765530  0.08163405  0.08897274     0.03730
N617        N  0.17084979  0.09030906  0.06056183     0.66230
H618        H  0.19524395  0.08585924  0.11792691     0.15130
H619        H  0.09607705  0.05650240  0.11473048     0.14840
N620        N  0.12273357  0.04379512  0.17019849     0.73940
O621        O  0.19392892  0.10290083  0.06177676    -0.39510
O622        O  0.16244406  0.08031660  0.03458000    -0.39460
O623        O  0.13745830  0.03863947  0.19496790    -0.40160
O624        O  0.09924376  0.03215046  0.16739670    -0.40230
C625        C  0.01080020  0.50700990  0.46720888    -0.12510
C626        C  0.01205040  0.02319273  0.99538726     0.04500
C627        C  0.49397209  0.01561375  0.02002839    -0.07800
C628        C  0.47477186  0.99334443  0.01518192    -0.08540
C629        C  0.47330814  0.47773906  0.98672018    -0.03090
C630        C  0.49158627  0.48506963  0.46232998     0.03730
N631        N  0.49053462  0.47113520  0.43207368     0.66230
H632        H  0.02418970  0.51227963  0.44785119     0.15130
H633        H  0.46177168  0.98721287  0.03456385     0.14840
N634        N  0.49488590  0.02953604  0.05022683     0.73940
O635        O  0.01305381  0.46547620  0.41735078    -0.39510
O636        O  0.46703141  0.46842254  0.91807655    -0.39460
O637        O  0.47224149  0.03432200  0.56498375    -0.40160
O638        O  0.51818696  0.03048093  0.06510229    -0.40230
C639        C  0.45247546  0.13929749  0.48350816    -0.12510
C640        C  0.46554457  0.12838750  0.51132259     0.04500
C641        C  0.44886961  0.12517711  0.03853501    -0.07800
C642        C  0.41932831  0.13121667  0.03607329    -0.08540
C643        C  0.40626850  0.14049133  0.50755520    -0.03090
C644        C  0.42339861  0.14628216  0.48159564     0.03730
N645        N  0.41167220  0.16034686  0.45352469     0.66230
H646        H  0.46520414  0.14308955  0.46320265     0.15130
H647        H  0.40638618  0.12711825  0.05603630     0.14840
N648        N  0.46087061  0.11449928  0.06819648     0.73940
O649        O  0.39598069  0.18352510  0.45558757    -0.39510
O650        O  0.42029186  0.15247758  0.42684282    -0.39460
O651        O  0.48059502  0.09468818  0.06906755    -0.40160
O652        O  0.44910216  0.12180324  0.09358931    -0.40230
C653        C  0.16759233  0.10839422  0.47011331    -0.12510
C654        C  0.15745131  0.13150622  0.98860736     0.04500
C655        C  0.17604749  0.14821749  0.00621822    -0.07800
C656        C  0.20487311  0.14175747  0.00392159    -0.08540
C657        C  0.21523049  0.11818268  0.98560579    -0.03090
C658        C  0.19626811  0.10113183  0.46875478     0.03730
N659        N  0.20538552  0.07527854  0.45212003     0.66230
H660        H  0.15306433  0.09522322  0.45800809     0.15130
H661        H  0.21924445  0.15491064  0.01702529     0.14840
N662        N  0.16622154  0.17004936  0.02813993     0.73940
O663        O  0.21204927  0.07721262  0.92362291    -0.39510
O664        O  0.20227979  0.05032861  0.46425712    -0.39460
O665        O  0.14885016  0.16330427  0.04863584    -0.40160
O666        O  0.17965158  0.19296416  0.53198761    -0.40230
C667        C  0.11543537  0.26834170  0.03845763    -0.12510
C668        C  0.13985388  0.26777215  0.51971479     0.04500
C669        C  0.14432659  0.24421493  0.49867811    -0.07800
C670        C  0.12477476  0.22229930  0.49699600    -0.08540
C671        C  0.10126528  0.22205589  0.51667139    -0.03090
C672        C  0.09607397  0.24582001  0.03732577     0.03730
N673        N  0.07116504  0.24814198  0.05635627     0.66230
H674        H  0.11115790  0.28671115  0.05402113     0.15130
H675        H  0.12890045  0.20466416  0.48068153     0.14840
N676        N  0.16885697  0.24157152  0.47936291     0.73940
O677        O  0.06176628  0.27297757  0.06579977    -0.39510
O678        O  0.05817108  0.22570226  0.56363714    -0.39460
O679        O  0.19330306  0.24195107  0.99180818    -0.40160
O680        O  0.16633064  0.23430695  0.45085869    -0.40230
O681        O  0.09553813  0.17315111  0.53303315    -0.80380
O682        O  0.00668820  0.10741537  0.98689039    -0.80400
O683        O  0.03357749  0.16222596  0.94940875    -0.80410
O684        O  0.04218780  0.09966686  0.57923210    -0.80350
O685        O  0.03352285  0.11507118  0.93641095    -0.80470
O686        O  0.05438630  0.14466920  0.56723451    -0.80390
O687        O  0.01237871  0.12634108  0.53285852    -0.80380
O688        O  0.06599779  0.19150462  0.99594507    -0.80420
C689        C  0.08525382  0.19496259  0.01670677     1.09310
C690        C  0.49629891  0.12049675  0.01042356     1.09200
C691        C  0.02471487  0.14182908  0.93207663     1.09330
C692        C  0.04319965  0.12679989  0.58646653     1.09210
O693        O  0.10896655  0.12242258  0.57059141    -0.80380
O694        O  0.08601637  0.08592641  0.95880010    -0.80460
O695        O  0.11391309  0.15658903  0.97813129    -0.80390
O696        O  0.03366040  0.06589108  0.52036691    -0.80370
O697        O  0.03548406  0.05957744  0.96783423    -0.80420
O698        O  0.11528280  0.11733000  0.50826114    -0.80390
O699        O  0.08977899  0.08405685  0.54901616    -0.80350
O700        O  0.08434341  0.12857850  0.93408131    -0.80420
Co701      Co  0.08449785  0.13110455  0.53529547     1.51530
Co702      Co  0.04761784  0.09664171  0.97676147     1.51690
Co703      Co  0.07313643  0.15872484  0.96619455     1.51570
Co704      Co  0.05055669  0.10619825  0.53672099     1.51470
O705        O  0.06004973  0.12982042  0.49797454    -1.42310
C706        C  0.10827662  0.09467236  0.56853120     1.09240
C707        C  0.09425762  0.10192732  0.93639089     1.09330
C708        C  0.12740402  0.13533947  0.49164749     1.09270
C709        C  0.02859721  0.05042105  0.49492512     1.09240
O710        O  0.27767782  0.06758237  0.52291618    -0.80380
O711        O  0.36498228  0.13536410  0.97672269    -0.80400
O712        O  0.33338712  0.08103384  0.93754514    -0.80410
O713        O  0.34092880  0.13337782  0.54642105    -0.80350
O714        O  0.33699739  0.12869153  0.92645192    -0.80470
O715        O  0.32496363  0.08913673  0.55192122    -0.80390
O716        O  0.35705757  0.14688744  0.52453933    -0.80380
O717        O  0.30223394  0.05096856  0.98261887    -0.80420
C718        C  0.28499374  0.04682793  0.50449560     1.09310
C719        C  0.37506562  0.14115453  0.50308887     1.09200
C720        C  0.34460234  0.10148762  0.92255855     1.09330
C721        C  0.34211060  0.10786194  0.56039547     1.09210
O722        O  0.27283399  0.11378369  0.56435761    -0.80380
O723        O  0.28500159  0.15784125  0.95295769    -0.80460
O724        O  0.25601750  0.09062359  0.96982156    -0.80390
O725        O  0.32415168  0.19153225  0.51144705    -0.80370
O726        O  0.33621356  0.18657050  0.96126719    -0.80420
O727        O  0.26095343  0.12593814  0.50388671    -0.80390
O728        O  0.28877846  0.15692992  0.55016294    -0.80350
O729        O  0.28418015  0.11838446  0.92399950    -0.80420
Co730      Co  0.29302692  0.10711597  0.52698374     1.51530
Co731      Co  0.32486730  0.14569444  0.96797665     1.51690
Co732      Co  0.29530201  0.08625997  0.95530378     1.51570
Co733      Co  0.31502665  0.14962471  0.51009614     1.51470
O734        O  0.31413639  0.10908322  0.48982773    -1.42310
C735        C  0.27374369  0.14119417  0.56871289     1.09240
C736        C  0.27494023  0.14450725  0.92940053     1.09330
C737        C  0.24556686  0.11139715  0.48607736     1.09270
C738        C  0.33602537  0.20172165  0.98692768     1.09240
O739        O  0.15172754  0.31454205  0.53883600    -0.80380
O740        O  0.23000344  0.39389090  0.96697393    -0.80400
O741        O  0.20594696  0.32791004  0.94918768    -0.80410
O742        O  0.22430430  0.37143018  0.56847555    -0.80350
O743        O  0.21217424  0.37686593  0.94777904    -0.80470
O744        O  0.20300537  0.33028082  0.56508110    -0.80390
O745        O  0.24282359  0.38133321  0.51409854    -0.80380
O746        O  0.17491894  0.29805740  0.99760096    -0.80420
C747        C  0.15738623  0.29408474  0.01939883     1.09310
C748        C  0.24986254  0.38717430  0.98660422     1.09200
C749        C  0.21765095  0.34998088  0.93725226     1.09330
C750        C  0.22317876  0.34451497  0.57612272     1.09210
O751        O  0.15400563  0.36110609  0.58212155    -0.80380
O752        O  0.16220343  0.40863644  0.95757736    -0.80460
O753        O  0.12974065  0.34036525  0.98654285    -0.80390
O754        O  0.21734068  0.43030171  0.53820193    -0.80370
O755        O  0.20385150  0.43727279  0.98797555    -0.80420
O756        O  0.13684006  0.37347325  0.52261036    -0.80390
O757        O  0.16836832  0.40186288  0.55849733    -0.80350
O758        O  0.15776079  0.36445478  0.93851679    -0.80420
Co759      Co  0.17029583  0.35244075  0.54319093     1.51530
Co760      Co  0.19288847  0.39583437  0.98834526     1.51690
Co761      Co  0.16890291  0.33372364  0.97050016     1.51570
Co762      Co  0.20438526  0.39044875  0.53089675     1.51470
O763        O  0.18955473  0.35554844  0.00537847    -1.42310
C764        C  0.15388708  0.38903545  0.58018437     1.09240
C765        C  0.15238796  0.39195486  0.93706582     1.09330
C766        C  0.12051399  0.36133582  0.00366970     1.09270
C767        C  0.21583096  0.44668517  0.01328531     1.09240
O768        O  0.43929472  0.44542268  0.50634551    -0.80380
O769        O  0.38267786  0.38278010  0.97163333    -0.80400
O770        O  0.41630485  0.40533103  0.93374870    -0.80410
O771        O  0.40739656  0.36699811  0.56361676    -0.80350
O772        O  0.40578686  0.36073038  0.91973194    -0.80470
O773        O  0.40920670  0.41487124  0.55179304    -0.80390
O774        O  0.38049288  0.35699151  0.51390801    -0.80380
O775        O  0.46488678  0.43014992  0.96677032    -0.80420
C776        C  0.45716182  0.45046785  0.98550368     1.09310
C777        C  0.36835646  0.37223161  0.49254168     1.09200
C778        C  0.40210076  0.38838447  0.91527258     1.09330
C779        C  0.39884141  0.39406387  0.56727033     1.09210
O780        O  0.45982178  0.38100249  0.56776933    -0.80380
O781        O  0.45851975  0.34495068  0.94531328    -0.80460
O782        O  0.48570549  0.37365571  0.98516042    -0.80390
O783        O  0.41198584  0.31030762  0.52788289    -0.80370
O784        O  0.40758421  0.32204979  0.97603324    -0.80420
O785        O  0.48860447  0.40776234  0.52137218    -0.80390
O786        O  0.46091402  0.33979779  0.54087455    -0.80350
O787        O  0.47065810  0.38606221  0.92358823    -0.80420
Co788      Co  0.44804263  0.41141954  0.53488623     1.51530
Co789      Co  0.42019398  0.36444807  0.96200720     1.51690
Co790      Co  0.45122732  0.38970969  0.96208514     1.51570
Co791      Co  0.42192076  0.34924828  0.52308316     1.51470
O792        O  0.43248043  0.38401371  0.50252012    -1.42310
C793        C  0.46922539  0.35459781  0.56428161     1.09240
C794        C  0.47433865  0.35848612  0.92583539     1.09330
C795        C  0.50000335  0.38717699  0.50504423     1.09270
C796        C  0.40492165  0.30353723  0.49955726     1.09240
O797        O  0.21135709  0.12466462  0.69386069    -0.80380
O798        O  0.17498712  0.14380365  0.82413874    -0.80400
O799        O  0.17573675  0.17469792  0.73975849    -0.80410
O800        O  0.24396471  0.12019920  0.75868357    -0.80350
O801        O  0.14216316  0.16366917  0.77206587    -0.80470
O802        O  0.23986519  0.08353314  0.72680213    -0.80390
O803        O  0.21319779  0.14850790  0.79904854    -0.80380
O804        O  0.17558331  0.15490766  0.67764391    -0.80420
C805        C  0.20081160  0.14418977  0.67398078     1.09310
C806        C  0.19987558  0.15358319  0.82329213     1.09200
C807        C  0.15446005  0.18263029  0.75626285     1.09330
C808        C  0.25405026  0.10394642  0.73753123     1.09210
O809        O  0.19158398  0.05494136  0.74732985    -0.80380
O810        O  0.12970683  0.10430915  0.75475713    -0.80460
O811        O  0.16280707  0.09919649  0.69121034    -0.80390
O812        O  0.19605914  0.09375382  0.83012513    -0.80370
O813        O  0.15932764  0.08320936  0.80361176    -0.80420
O814        O  0.19954007  0.06789880  0.68411037    -0.80390
O815        O  0.22590481  0.06448078  0.78113219    -0.80350
O816        O  0.13134168  0.13886137  0.71921781    -0.80420
Co817      Co  0.19787194  0.09026697  0.72209923     1.51530
Co818      Co  0.15281718  0.12299856  0.78703712     1.51690
Co819      Co  0.17385902  0.13596984  0.71825269     1.51570
Co820      Co  0.21838286  0.10713122  0.79051069     1.51470
O821        O  0.18586827  0.11474274  0.75902607    -1.42310
C822        C  0.21278040  0.04620874  0.76450254     1.09240
C823        C  0.11792531  0.11902169  0.73262998     1.09330
C824        C  0.17536780  0.07849303  0.67510089     1.09270
C825        C  0.17112833  0.08428457  0.82987646     1.09240
O826        O  0.40966136  0.12589392  0.69031771    -0.80380
O827        O  0.44871895  0.10163022  0.82790631    -0.80400
O828        O  0.45305178  0.05934258  0.74408649    -0.80410
O829        O  0.37853398  0.11642022  0.75856622    -0.80350
O830        O  0.48150332  0.07612992  0.78122683    -0.80470
O831        O  0.37797024  0.15641513  0.73093540    -0.80390
O832        O  0.41284609  0.09189388  0.79985950    -0.80380
O833        O  0.42300436  0.07866528  0.68883087    -0.80420
C834        C  0.40893600  0.10095341  0.67653006     1.09310
C835        C  0.42524526  0.08971471  0.82583237     1.09200
C836        C  0.47345526  0.05514823  0.76403320     1.09330
C837        C  0.36634398  0.13333174  0.73886086     1.09210
O838        O  0.42487408  0.18967676  0.75134721    -0.80380
O839        O  0.99239110  0.13267402  0.75828963    -0.80460
O840        O  0.46140983  0.11344179  0.69513103    -0.80390
O841        O  0.42449574  0.15021642  0.82787799    -0.80370
O842        O  0.45991277  0.16002341  0.79996347    -0.80420
O843        O  0.45665207  0.16125524  0.70228946    -0.80390
O844        O  0.39091182  0.17620682  0.78188768    -0.80350
O845        O  0.97994836  0.09910215  0.72330753    -0.80420
Co846      Co  0.41961025  0.15673905  0.72265418     1.51530
Co847      Co  0.46894570  0.11877618  0.78988444     1.51690
Co848      Co  0.43516820  0.09758183  0.72765077     1.51570
Co849      Co  0.40281520  0.13305136  0.79037137     1.51470
O850        O  0.43486720  0.12773082  0.75955125    -1.42310
C851        C  0.40383916  0.19656318  0.76826508     1.09240
C852        C  0.99888151  0.11531153  0.73670465     1.09330
C853        C  0.46632372  0.13966860  0.68616498     1.09270
C854        C  0.44846259  0.16121092  0.82601670     1.09240
O855        O  0.03334953  0.36146395  0.69225022    -0.80380
O856        O  0.07303724  0.34268357  0.82726010    -0.80400
O857        O  0.10080091  0.31748660  0.72762561    -0.80410
O858        O  0.50599220  0.36492221  0.75835601    -0.80350
O859        O  0.09712268  0.31360552  0.77876681    -0.80470
O860        O  0.50689660  0.40108799  0.72482908    -0.80390
O861        O  0.03260805  0.33872172  0.80445306    -0.80380
O862        O  0.06814526  0.33133275  0.67788744    -0.80420
C863        C  0.04401442  0.34355023  0.67175874     1.09310
C864        C  0.04814776  0.33400839  0.82810496     1.09200
C865        C  0.10455235  0.30270595  0.75286901     1.09330
C866        C  0.49333234  0.38157966  0.73875660     1.09210
O867        O  0.05618168  0.43147835  0.74371116    -0.80380
O868        O  0.12384926  0.36602598  0.76093717    -0.80460
O869        O  0.08742609  0.38186746  0.69180075    -0.80390
O870        O  0.05507820  0.39502033  0.82757289    -0.80370
O871        O  0.09300863  0.39729834  0.80062897    -0.80420
O872        O  0.05179985  0.41492086  0.68106498    -0.80390
O873        O  0.02338203  0.42270962  0.77812714    -0.80350
O874        O  0.10461944  0.37149962  0.71286624    -0.80420
Co875      Co  0.04956734  0.39436781  0.72071685     1.51530
Co876      Co  0.09484611  0.35594051  0.78946145     1.51690
Co877      Co  0.06946008  0.34849526  0.71937483     1.51570
Co878      Co  0.03052213  0.37980169  0.79032052     1.51470
O879        O  0.06181993  0.36937743  0.75991351    -1.42310
C880        C  0.03656480  0.44083320  0.76176464     1.09240
C881        C  0.12487059  0.37472122  0.73311423     1.09330
C882        C  0.07639481  0.40397777  0.67467336     1.09270
C883        C  0.08105885  0.40128826  0.82613967     1.09240
O884        O  0.33136519  0.40652191  0.69415183    -0.80380
O885        O  0.29435184  0.42479745  0.81289770    -0.80400
O886        O  0.26734900  0.42300208  0.71435313    -0.80410
O887        O  0.36533204  0.35665251  0.77981319    -0.80350
O888        O  0.30103938  0.43490323  0.74780842    -0.80470
O889        O  0.36050235  0.39039708  0.74399114    -0.80390
O890        O  0.33268305  0.39912143  0.79994023    -0.80380
O891        O  0.29622326  0.39225197  0.66709220    -0.80420
C892        C  0.31957402  0.40476931  0.66783430     1.09310
C893        C  0.32003250  0.41650566  0.81915017     1.09200
C894        C  0.27987092  0.44243829  0.73016668     1.09330
C895        C  0.37638182  0.37576486  0.76254627     1.09210
O896        O  0.35308210  0.32789717  0.73093764    -0.80380
O897        O  0.25108714  0.40744279  0.76749396    -0.80460
O898        O  0.28241095  0.33767595  0.69829724    -0.80390
O899        O  0.31846175  0.34608413  0.82598887    -0.80370
O900        O  0.28083345  0.36778534  0.80308815    -0.80420
O901        O  0.32296633  0.34441262  0.67695676    -0.80390
O902        O  0.32084202  0.31847435  0.76613574    -0.80350
O903        O  0.25496865  0.36698746  0.74261787    -0.80420
Co904      Co  0.34128046  0.36800181  0.71267282     1.51530
Co905      Co  0.29393696  0.40111681  0.77462381     1.51690
Co906      Co  0.27594470  0.37943288  0.70714548     1.51570
Co907      Co  0.32215162  0.35903580  0.78190035     1.51470
O908        O  0.30793226  0.37488283  0.73905518    -1.42310
C909        C  0.34172416  0.30983981  0.74943407     1.09240
C910        C  0.23909146  0.38680497  0.75357069     1.09330
C911        C  0.29910396  0.33244320  0.67634195     1.09270
C912        C  0.29217985  0.35454785  0.82738433     1.09240
C913        C  0.44525198  0.40449719  0.73546968    -0.12510
C914        C  0.46263502  0.37879920  0.73673315     0.04500
C915        C  0.45126332  0.35189995  0.74634389    -0.07800
C916        C  0.42383208  0.35233757  0.75790562    -0.08540
C917        C  0.40682743  0.37831694  0.75822588    -0.03090
C918        C  0.41738386  0.40467735  0.74580356     0.03730
N919        N  0.40034141  0.43186913  0.74365660     0.66230
H920        H  0.45399391  0.42502796  0.72861598     0.15130
H921        H  0.41508267  0.33188232  0.76499841     0.14840
N922        N  0.46751234  0.32412393  0.74529969     0.73940
O923        O  0.40414690  0.45006160  0.72179299    -0.39510
O924        O  0.38319498  0.43900357  0.76494924    -0.39460
O925        O  0.48630583  0.31963734  0.72501375    -0.40160
O926        O  0.46154808  0.30306732  0.76298394    -0.40230
C927        C  0.19019254  0.41130567  0.75072541    -0.12510
C928        C  0.20869531  0.38699032  0.74460060     0.04500
C929        C  0.19857188  0.36358422  0.72630738    -0.07800
C930        C  0.17105207  0.36537930  0.71408732    -0.08540
C931        C  0.15165187  0.38661036  0.72491549    -0.03090
C932        C  0.16131786  0.41100664  0.74185863     0.03730
N933        N  0.14180800  0.43458292  0.75137619     0.66230
H934        H  0.19797637  0.42984819  0.76345374     0.15130
H935        H  0.16348194  0.34700610  0.70083901     0.14840
N936        N  0.21495892  0.33653522  0.72200094     0.73940
O937        O  0.14937679  0.45337968  0.77111395    -0.39510
O938        O  0.11747108  0.43786308  0.73866184    -0.39460
O939        O  0.22379359  0.32146665  0.74568497    -0.40160
O940        O  0.21533072  0.32489864  0.69519815    -0.40230
C941        C  0.49271120  0.01005299  0.73636697    -0.12510
C942        C  0.49043518  0.02601415  0.76453889     0.04500
C943        C  0.00676272  0.01513937  0.79107427    -0.07800
C944        C  0.02328305  0.98828816  0.78914659    -0.08540
C945        C  0.02515624  0.47229222  0.76101583    -0.03090
C946        C  0.01010529  0.98400398  0.73423041     0.03730
N947        N  0.51223635  0.46975213  0.70445663     0.66230
H948        H  0.48152217  0.01835338  0.71532497     0.15130
H949        H  0.03400184  0.97928057  0.81016267     0.14840
N950        N  0.00574506  0.03008779  0.82063190     0.73940
O951        O  0.49007774  0.46238070  0.69021856    -0.39510
O952        O  0.03465166  0.47161122  0.68924802    -0.39460
O953        O  0.48216217  0.03802224  0.83196961    -0.40160
O954        O  0.02790911  0.03140946  0.83752805    -0.40230
C955        C  0.38273192  0.27447224  0.73979938    -0.12510
C956        C  0.35654456  0.28010689  0.75442928     0.04500
C957        C  0.34781807  0.25910143  0.77640696    -0.07800
C958        C  0.36529506  0.23360910  0.78306233    -0.08540
C959        C  0.39074165  0.22735671  0.76718401    -0.03090
C960        C  0.39995412  0.24890516  0.74609594     0.03730
N961        N  0.42680940  0.24559915  0.73103787     0.66230
H962        H  0.39057560  0.29057097  0.72378394     0.15130
H963        H  0.35792559  0.21762585  0.79951851     0.14840
N964        N  0.32089547  0.26244935  0.79122894     0.73940
O965        O  0.42878688  0.25260166  0.70239334    -0.39510
O966        O  0.44914305  0.24063055  0.74746195    -0.39460
O967        O  0.29857571  0.26615139  0.77451529    -0.40160
O968        O  0.31893927  0.25632063  0.82009614    -0.40230
C969        C  0.22119648  0.50274054  0.73036653    -0.12510
C970        C  0.22743202  0.51713067  0.75864149     0.04500
C971        C  0.25224342  0.50779370  0.77603658    -0.07800
C972        C  0.27062023  0.48571204  0.76399135    -0.08540
C973        C  0.26442976  0.47120783  0.73575311    -0.03090
C974        C  0.23943636  0.48027915  0.71849651     0.03730
N975        N  0.23254304  0.46764431  0.68856166     0.66230
H976        H  0.20283365  0.51023233  0.71622794     0.15130
H977        H  0.28908534  0.47856954  0.77813501     0.14840
N978        N  0.25893663  0.02004315  0.80624022     0.73940
O979        O  0.20698750  0.46553111  0.68020668    -0.39510
O980        O  0.25157663  0.46274867  0.66861048    -0.39460
O981        O  0.23997976  0.02364622  0.82652589    -0.40160
O982        O  0.28432856  0.02396408  0.81406662    -0.40230
C983        C  0.15488511  0.23554101  0.73924266    -0.12510
C984        C  0.14142424  0.21341224  0.75532504     0.04500
C985        C  0.11518754  0.22122565  0.77001883    -0.07800
C986        C  0.10389926  0.25033624  0.76866863    -0.08540
C987        C  0.11744406  0.27219045  0.75269999    -0.03090
C988        C  0.14335931  0.26473485  0.73826503     0.03730
N989        N  0.15987079  0.28725081  0.72619134     0.66230
H990        H  0.17508330  0.23044161  0.72846473     0.15130
H991        H  0.08394783  0.25586043  0.77986820     0.14840
N992        N  0.09910320  0.20016519  0.78598592     0.73940
O993        O  0.16561105  0.30826470  0.74396068    -0.39510
O994        O  0.17316001  0.28330129  0.70100778    -0.39460
O995        O  0.09041625  0.20581150  0.81329593    -0.40160
O996        O  0.08756160  0.18050153  0.77028626    -0.40230
C997        C  0.28805654  0.14027389  0.72570689    -0.12510
C998        C  0.28189377  0.11044540  0.72593933     0.04500
C999        C  0.30390589  0.08856146  0.72301436    -0.07800
C1000       C  0.33185563  0.09708247  0.72440185    -0.08540
C1001       C  0.33785882  0.12677366  0.72821132    -0.03090
C1002       C  0.31576646  0.14870068  0.72692265     0.03730
N1003       N  0.32067796  0.17906024  0.73190576     0.66230
H1004       H  0.27112673  0.15718537  0.72784200     0.15130
H1005       H  0.34905190  0.08031166  0.72441296     0.14840
N1006       N  0.29851209  0.05784118  0.72168357     0.73940
O1007       O  0.30926540  0.19833856  0.71348378    -0.39510
O1008       O  0.33012478  0.18685521  0.75834581    -0.39460
O1009       O  0.28048478  0.04893924  0.70216002    -0.40160
O1010       O  0.31474646  0.03915402  0.73623042    -0.40230
C1011       C  0.07109398  0.13974178  0.71558477    -0.12510
C1012       C  0.08776962  0.11499484  0.72564987     0.04500
C1013       C  0.07439362  0.08887127  0.73380637    -0.07800
C1014       C  0.04489718  0.08891151  0.73315306    -0.08540
C1015       C  0.02846477  0.11482047  0.72723781    -0.03090
C1016       C  0.04169945  0.14070622  0.71806415     0.03730
N1017       N  0.02614121  0.16825886  0.71162685     0.66230
H1018       H  0.08107889  0.15971553  0.70920572     0.15130
H1019       H  0.03483176  0.06928454  0.74058292     0.14840
N1020       N  0.08987569  0.06266485  0.74483824     0.73940
O1021       O  0.03333712  0.18417555  0.68904447    -0.39510
O1022       O  0.00978687  0.17955628  0.73182605    -0.39460
O1023       O  0.09927613  0.06162099  0.77287467    -0.40160
O1024       O  0.08558377  0.03868948  0.73129685    -0.40230
C1025       C  0.04385566  0.34428063  0.88409510    -0.12510
C1026       C  0.03462804  0.32800925  0.85850203     0.04500
C1027       C  0.50797833  0.31532719  0.85994282    -0.07800
C1028       C  0.48984042  0.32302947  0.88490067    -0.08540
C1029       C  0.49727957  0.34379217  0.90744647    -0.03090
C1030       C  0.02526706  0.35396417  0.90750328     0.03730
N1031       N  0.03532231  0.37529282  0.92942822     0.66230
H1032       H  0.06438741  0.35361588  0.88330556     0.15130
H1033       H  0.46878863  0.31485739  0.88515130     0.14840
N1034       N  0.49854424  0.29604102  0.83556617     0.73940
O1035       O  0.06137906  0.37459503  0.93656935    -0.39510
O1036       O  0.52074207  0.39864601  0.93486856    -0.39460
O1037       O  0.51625643  0.28155050  0.81914032    -0.40160
O1038       O  0.47261194  0.29138562  0.83218423    -0.40230
C1039       C  0.01798587  0.34097419  0.58539069    -0.12510
C1040       C  0.48861888  0.34164451  0.58950410     0.04500
C1041       C  0.47848425  0.33743897  0.62010927    -0.07800
C1042       C  0.49766777  0.33631778  0.64590402    -0.08540
C1043       C  0.02702517  0.33790352  0.64238335    -0.03090
C1044       C  0.03762726  0.33874226  0.61113890     0.03730
N1045       N  0.06744353  0.33945500  0.60444765     0.66230
H1046       H  0.02564594  0.34464372  0.56205216     0.15130
H1047       H  0.48940622  0.33512814  0.66931525     0.14840
N1048       N  0.44873583  0.33503398  0.62545245     0.73940
O1049       O  0.07592245  0.33443075  0.57692085    -0.39510
O1050       O  0.08523020  0.34721753  0.62479427    -0.39460
O1051       O  0.43321712  0.32374699  0.60480745    -0.40160
O1052       O  0.43874761  0.34012460  0.65231778    -0.40230
C1053       C  0.32975025  0.40168169  0.87316769    -0.12510
C1054       C  0.33544500  0.42162023  0.84942220     0.04500
C1055       C  0.36226956  0.43414403  0.85021684    -0.07800
C1056       C  0.38319765  0.42400115  0.87291246    -0.08540
C1057       C  0.37872953  0.40031687  0.89332645    -0.03090
C1058       C  0.35124851  0.38903536  0.89312028     0.03730
N1059       N  0.34465419  0.36362226  0.91117161     0.66230
H1060       H  0.30927076  0.39237841  0.87299772     0.15130
H1061       H  0.40365160  0.43352497  0.87355096     0.14840
N1062       N  0.36848683  0.45699229  0.82822951     0.73940
O1063       O  0.32015566  0.36260998  0.92200831    -0.39510
O1064       O  0.35857933  0.33957221  0.90707633    -0.39460
O1065       O  0.34880521  0.47063357  0.81262771    -0.40160
O1066       O  0.39338349  0.46530656  0.82610428    -0.40230
C1067       C  0.34882382  0.40341191  0.58422328    -0.12510
C1068       C  0.37800303  0.40178608  0.59169315     0.04500
C1069       C  0.38708981  0.40745512  0.62269543    -0.07800
C1070       C  0.36690579  0.41071061  0.64610468    -0.08540
C1071       C  0.33757185  0.40922159  0.63972419    -0.03090
C1072       C  0.32824044  0.40816288  0.60775008     0.03730
N1073       N  0.29880560  0.41345994  0.59858565     0.66230
H1074       H  0.34220945  0.40109417  0.55984030     0.15130
H1075       H  0.37461634  0.41349960  0.67002051     0.14840
N1076       N  0.41662012  0.40947024  0.63106711     0.73940
O1077       O  0.28123284  0.42398567  0.61796484    -0.39510
O1078       O  0.29132950  0.41304200  0.56987762    -0.39460
O1079       O  0.42542764  0.40337733  0.65874959    -0.40160
O1080       O  0.43302681  0.42147011  0.61251697    -0.40230
C1081       C  0.23244801  0.36830777  0.88632097    -0.12510
C1082       C  0.23742992  0.34682054  0.90967999     0.04500
C1083       C  0.26124369  0.32614963  0.90584633    -0.07800
C1084       C  0.27895497  0.32897336  0.87904095    -0.08540
C1085       C  0.27344226  0.35088567  0.85572954    -0.03090
C1086       C  0.24929395  0.37039015  0.85996917     0.03730
N1087       N  0.24110547  0.39332383  0.83802201     0.66230
H1088       H  0.21480414  0.38436291  0.88847221     0.15130
H1089       H  0.29722088  0.31389635  0.87621225     0.14840
N1090       N  0.26870099  0.30294013  0.92845770     0.73940
O1091       O  0.22024473  0.38953096  0.81982723    -0.39510
O1092       O  0.24675898  0.41930429  0.84484839    -0.39460
O1093       O  0.25320932  0.29789730  0.95138816    -0.40160
O1094       O  0.29080119  0.28650364  0.92502390    -0.40230
C1095       C  0.29404767  0.33369766  0.61838462    -0.12510
C1096       C  0.28648389  0.32093593  0.64675819     0.04500
C1097       C  0.26070005  0.30629590  0.64719620    -0.07800
C1098       C  0.23973443  0.31315207  0.62348023    -0.08540
C1099       C  0.24587016  0.33072493  0.59754810    -0.03090
C1100       C  0.27437977  0.33698511  0.59322163     0.03730
N1101       N  0.28381913  0.34360087  0.56246523     0.66230
H1102       H  0.31475282  0.34241193  0.61631933     0.15130
H1103       H  0.21862115  0.30547926  0.62562525     0.14840
N1104       N  0.25577845  0.28472796  0.67122813     0.73940
O1105       O  0.30688955  0.35564562  0.55899346    -0.39510
O1106       O  0.27324752  0.33024013  0.53956452    -0.39460
O1107       O  0.23377961  0.27028839  0.66989155    -0.40160
O1108       O  0.27510385  0.27682870  0.69097121    -0.40230
C1109       C  0.14542752  0.39039554  0.88058149    -0.12510
C1110       C  0.13648648  0.40318194  0.90853723     0.04500
C1111       C  0.10993311  0.41931509  0.90868068    -0.07800
C1112       C  0.09156347  0.41869334  0.88181158    -0.08540
C1113       C  0.10010402  0.40381494  0.85440606    -0.03090
C1114       C  0.12795998  0.39029095  0.85403274     0.03730
N1115       N  0.13834541  0.37348736  0.82800422     0.66230
H1116       H  0.16563461  0.37796854  0.87999231     0.15130
H1117       H  0.07088518  0.43014249  0.88212305     0.14840
N1118       N  0.10186030  0.43708467  0.93505470     0.73940
O1119       O  0.15784939  0.38341107  0.81197709    -0.39510
O1120       O  0.13480852  0.34622265  0.82754504    -0.39460
O1121       O  0.11927564  0.45429150  0.94657489    -0.40160
O1122       O  0.07613490  0.44053259  0.94214340    -0.40230
C1123       C  0.12305458  0.41752012  0.65521008    -0.12510
C1124       C  0.09394888  0.41498113  0.64877132     0.04500
C1125       C  0.08484347  0.41315776  0.61702371    -0.07800
C1126       C  0.10525952  0.40703483  0.59388648    -0.08540
C1127       C  0.13441859  0.40596369  0.60110788    -0.03090
C1128       C  0.14343813  0.41351448  0.63164044     0.03730
N1129       N  0.17314457  0.41474088  0.63942594     0.66230
H1130       H  0.13000046  0.42086697  0.67918826     0.15130
H1131       H  0.09836782  0.40087722  0.57065545     0.14840
N1132       N  0.05521816  0.41501444  0.60840861     0.73940
O1133       O  0.18207365  0.41085904  0.66740202    -0.39510
O1134       O  0.19040062  0.42167313  0.61877293    -0.39300
O1135       O  0.03843004  0.43271084  0.62247567    -0.40160
O1136       O  0.04661233  0.40301654  0.58357545    -0.40230
C1137       C  0.32547269  0.40323228  0.98060731    -0.12510
C1138       C  0.33764229  0.37578913  0.49009356     0.04500
C1139       C  0.32086000  0.35114180  0.49060847    -0.07800
C1140       C  0.29207111  0.35502271  0.48334481    -0.08540
C1141       C  0.27941256  0.38296983  0.97795689    -0.03090
C1142       C  0.29639741  0.40703633  0.97401640     0.03730
N1143       N  0.28486093  0.43476450  0.96203670     0.66230
H1144       H  0.33887498  0.42153766  0.97767085     0.15130
H1145       H  0.27900348  0.33634833  0.48417022     0.14840
N1146       N  0.33237045  0.32217321  0.49848152     0.73940
O1147       O  0.29845928  0.45753955  0.96606129    -0.39510
O1148       O  0.26491025  0.43540946  0.94179608    -0.39460
O1149       O  0.34309324  0.31724372  0.52557956    -0.40160
O1150       O  0.32518957  0.30066254  0.48214566    -0.40230
C1151       C  0.07179722  0.34669653  0.99871895    -0.12510
C1152       C  0.08995080  0.36951290  0.00377655     0.04500
C1153       C  0.07832066  0.39825854  0.51051399    -0.07800
C1154       C  0.04880711  0.40266186  0.51262996    -0.08540
C1155       C  0.03073571  0.37981778  0.50719505    -0.03090
C1156       C  0.04250599  0.35143232  0.99973625     0.03730
N1157       N  0.02536574  0.32724099  0.99229060     0.66230
H1158       H  0.08048402  0.32465055  0.99399921     0.15130
H1159       H  0.03967317  0.42457626  0.51702435     0.14840
N1160       N  0.09544948  0.42332197  0.51456067     0.73940
O1161       O  0.03225400  0.31006209  0.97018010    -0.39510
O1162       O  0.50663459  0.31990336  0.51092823    -0.39460
O1163       O  0.11925915  0.42420846  0.00202673    -0.40160
O1164       O  0.08560030  0.44605440  0.52832703    -0.40230
C1165       C  0.26528494  0.16191179  0.87482971    -0.12510
C1166       C  0.25499268  0.15904482  0.90518646     0.04500
C1167       C  0.22528762  0.16345902  0.90899147    -0.07800
C1168       C  0.20676461  0.16282818  0.88212951    -0.08540
C1169       C  0.21730066  0.16284433  0.85148560    -0.03090
C1170       C  0.24700938  0.16611023  0.84845479     0.03730
N1171       N  0.25917392  0.17267716  0.81865971     0.66230
H1172       H  0.28796926  0.16048487  0.87158653     0.15130
H1173       H  0.18412890  0.16242721  0.88508148     0.14840
N1174       N  0.21384524  0.17085105  0.93908531     0.73940
O1175       O  0.24799418  0.19309531  0.80148522    -0.39510
O1176       O  0.28307123  0.16118290  0.81155482    -0.39460
O1177       O  0.22927628  0.18231728  0.95969899    -0.40160
O1178       O  0.18736607  0.17268486  0.94234788    -0.40230
C1179       C  0.22801857  0.16169692  0.59161450    -0.12510
C1180       C  0.25712713  0.15367479  0.59565047     0.04500
C1181       C  0.26755523  0.14818930  0.62648036    -0.07800
C1182       C  0.24879433  0.14703934  0.65153641    -0.08540
C1183       C  0.21939193  0.15241260  0.64737588    -0.03090
C1184       C  0.20919417  0.16154620  0.61715110     0.03730
N1185       N  0.17976153  0.16897943  0.61147441     0.66230
H1186       H  0.21945304  0.16606552  0.56826521     0.15130
H1187       H  0.25727346  0.14099095  0.67446882     0.14840
N1188       N  0.29730768  0.14325811  0.63242978     0.73940
O1189       O  0.17190078  0.19428555  0.60124695    -0.39510
O1190       O  0.16169049  0.14998819  0.61523086    -0.39460
O1191       O  0.31401199  0.16079888  0.62084036    -0.40160
O1192       O  0.30658423  0.12422824  0.65239028    -0.40230
C1193       C  0.39479036  0.09348822  0.90759760    -0.12510
C1194       C  0.36592463  0.09317708  0.89924680     0.04500
C1195       C  0.35776294  0.08482778  0.86872551    -0.07800
C1196       C  0.37869841  0.07930293  0.84657516    -0.08540
C1197       C  0.40756183  0.08336464  0.85341484    -0.03090
C1198       C  0.41595772  0.08840503  0.88505552     0.03730
N1199       N  0.44535397  0.08804490  0.89468419     0.66230
H1200       H  0.40073604  0.09804615  0.93177069     0.15130
H1201       H  0.37188595  0.07396222  0.82288267     0.14840
N1202       N  0.32843267  0.08373203  0.85912396     0.73940
O1203       O  0.45265352  0.10006422  0.92004243    -0.39510
O1204       O  0.46335266  0.07139979  0.88107056    -0.39460
O1205       O  0.32062451  0.09079830  0.83134219    -0.40160
O1206       O  0.31067486  0.07343042  0.87731379    -0.40230
C1207       C  0.36789934  0.12855175  0.60366533    -0.12510
C1208       C  0.36224435  0.10305335  0.58746799     0.04500
C1209       C  0.37366229  0.07559069  0.59949055    -0.07800
C1210       C  0.38920271  0.07492564  0.62858666    -0.08540
C1211       C  0.39264281  0.10084072  0.64595496    -0.03090
C1212       C  0.38089664  0.12788084  0.63298548     0.03730
N1213       N  0.37901650  0.15492629  0.65007798     0.66230
H1214       H  0.35993674  0.14982818  0.59471122     0.15130
H1215       H  0.39852038  0.05423026  0.63769056     0.14840
N1216       N  0.37105791  0.04881912  0.58210796     0.73940
O1217       O  0.38794208  0.17776635  0.63764130    -0.39510
O1218       O  0.36024600  0.15805070  0.67054342    -0.39460
O1219       O  0.37066450  0.04926403  0.55238260    -0.40160
O1220       O  0.37297001  0.02426887  0.59622628    -0.40230
C1221       C  0.26039196  0.51060897  0.53596007    -0.12510
C1222       C  0.26936612  0.01966440  0.50625596     0.04500
C1223       C  0.25758862  0.00696828  0.97894695    -0.07800
C1224       C  0.23808744  0.48514756  0.98229063    -0.08540
C1225       C  0.23095061  0.47439680  0.01198914    -0.03090
C1226       C  0.24145095  0.48825109  0.53910101     0.03730
N1227       N  0.23147657  0.48165177  0.56974233     0.66230
H1228       H  0.26775051  0.52143781  0.55700959     0.15130
H1229       H  0.22944194  0.97555495  0.96118249     0.14840
N1230       N  0.26460702  0.01599135  0.94766331     0.73940
O1231       O  0.24220673  0.45968974  0.58482811    -0.39510
O1232       O  0.21664040  0.50092576  0.58412674    -0.39460
O1233       O  0.29004907  0.01428573  0.93927717    -0.40160
O1234       O  0.24538894  0.01883973  0.92661276    -0.40230
C1235       C  0.36272467  0.24217603  0.96266510    -0.12510
C1236       C  0.35265064  0.22861919  0.48976932     0.04500
C1237       C  0.36216067  0.23845111  0.51954336    -0.07800
C1238       C  0.38034734  0.26150544  0.52155022    -0.08540
C1239       C  0.38997033  0.27568482  0.49465381    -0.03090
C1240       C  0.38167225  0.26507210  0.96463611     0.03730
N1241       N  0.39292679  0.27623426  0.93607371     0.66230
H1242       H  0.35666918  0.23411708  0.93969583     0.15130
H1243       H  0.38650511  0.26869879  0.54484637     0.14840
N1244       N  0.35461295  0.22464838  0.54829404     0.73940
O1245       O  0.41910656  0.27977012  0.93435304    -0.39510
O1246       O  0.37798994  0.27719363  0.41105528    -0.39460
O1247       O  0.36753562  0.20083358  0.05687706    -0.40160
O1248       O  0.34028085  0.23927972  0.56809194    -0.40230
C1249       C  0.48340148  0.17097474  0.90715807    -0.12510
C1250       C  0.00552407  0.14899833  0.90505550     0.04500
C1251       C  0.00963085  0.13422182  0.87641655    -0.07800
C1252       C  0.99160229  0.14105081  0.85117880    -0.08540
C1253       C  0.46792034  0.16080516  0.85362095    -0.03090
C1254       C  0.46397222  0.17692527  0.88171745     0.03730
N1255       N  0.44151374  0.19954071  0.88464081     0.66230
H1256       H  0.48096163  0.18296300  0.92895117     0.15130
H1257       H  0.99565002  0.12922312  0.82959664     0.14840
N1258       N  0.03211757  0.11225851  0.87202075     0.73940
O1259       O  0.43844363  0.21327437  0.91018355    -0.39510
O1260       O  0.42561599  0.20719147  0.86142658    -0.39460
O1261       O  0.02978539  0.08674031  0.88311167    -0.40160
O1262       O  0.04885104  0.11545590  0.84969689    -0.40230
C1263       C  0.50904557  0.16101474  0.61428974    -0.12510
C1264       C  0.02911256  0.13701203  0.61493385     0.04500
C1265       C  0.03002599  0.11730471  0.64006298    -0.07800
C1266       C  0.00743336  0.11748684  0.65979893    -0.08540
C1267       C  0.48757320  0.14159745  0.66113915    -0.03090
C1268       C  0.48854599  0.16425585  0.63802370     0.03730
N1269       N  0.46784550  0.18865656  0.63614008     0.66230
H1270       H  0.50815628  0.17596235  0.59430239     0.15130
H1271       H  0.00644922  0.09868559  0.67512377     0.14840
N1272       N  0.05391441  0.09690367  0.64540912     0.73940
O1273       O  0.47295687  0.21158989  0.62090250    -0.39510
O1274       O  0.44334220  0.18634459  0.64651938    -0.39460
O1275       O  0.07851608  0.10582036  0.64276814    -0.40160
O1276       O  0.05084243  0.07214909  0.65803856    -0.40230
C1277       C  0.15466277  0.06632190  0.88390163    -0.12510
C1278       C  0.15198808  0.08596540  0.85799012     0.04500
C1279       C  0.12828772  0.10638112  0.85747381    -0.07800
C1280       C  0.11076785  0.10926705  0.88305183    -0.08540
C1281       C  0.11373040  0.09148019  0.91007527    -0.03090
C1282       C  0.13519396  0.06774562  0.90948609     0.03730
N1283       N  0.13804008  0.04498831  0.93344562     0.66230
H1284       H  0.17163581  0.04935588  0.88382609     0.15130
H1285       H  0.09389204  0.12629122  0.88105537     0.14840
N1286       N  0.12049783  0.12454431  0.83080955     0.73940
O1287       O  0.15201352  0.02117055  0.92801590    -0.39510
O1288       O  0.12745934  0.04837875  0.96022326    -0.39460
O1289       O  0.10444221  0.11426311  0.81007301    -0.40160
O1290       O  0.11979091  0.15208928  0.83425062    -0.40230
C1291       C  0.17376468  0.07877512  0.61718628    -0.12510
C1292       C  0.16174668  0.06947136  0.64509352     0.04500
C1293       C  0.13434509  0.05836695  0.64355333    -0.07800
C1294       C  0.11800909  0.06209027  0.61526863    -0.08540
C1295       C  0.12852172  0.07631874  0.58895384    -0.03090
C1296       C  0.15765527  0.08163406  0.58897279     0.03730
N1297       N  0.17084974  0.09030907  0.56056187     0.66230
H1298       H  0.19524395  0.08585920  0.61792692     0.15130
H1299       H  0.09607702  0.05650244  0.61473056     0.14840
N1300       N  0.12273356  0.04379515  0.67019855     0.73940
O1301       O  0.19392886  0.10290086  0.56177678    -0.39510
O1302       O  0.16244403  0.08031656  0.53458005    -0.39460
O1303       O  0.13745833  0.03863942  0.69496792    -0.40160
O1304       O  0.09924369  0.03215058  0.66739682    -0.40230
C1305       C  0.01080027  0.50700984  0.96720889    -0.12510
C1306       C  0.01205041  0.02319276  0.49538730     0.04500
C1307       C  0.49397208  0.01561380  0.52002842    -0.07800
C1308       C  0.47477185  0.99334448  0.51518196    -0.08540
C1309       C  0.47330811  0.47773909  0.48672022    -0.03090
C1310       C  0.49158635  0.48506956  0.96232997     0.03730
N1311       N  0.49053476  0.47113510  0.93207369     0.66230
H1312       H  0.02418981  0.51227954  0.94785123     0.15130
H1313       H  0.46177166  0.98721293  0.53456388     0.14840
N1314       N  0.49488587  0.02953612  0.55022685     0.73940
O1315       O  0.01305397  0.46547609  0.91735084    -0.39510
O1316       O  0.46703124  0.46842264  0.41807659    -0.39460
O1317       O  0.47224154  0.03432188  0.06498377    -0.40160
O1318       O  0.51818691  0.03048100  0.56510233    -0.40230
C1319       C  0.45247545  0.13929752  0.98350831    -0.12510
C1320       C  0.46554455  0.12838743  0.01132270     0.04500
C1321       C  0.44886963  0.12517730  0.53853492    -0.07800
C1322       C  0.41932834  0.13121683  0.53607319    -0.08540
C1323       C  0.40626848  0.14049129  0.00755534    -0.03090
C1324       C  0.42339859  0.14628220  0.98159581     0.03730
N1325       N  0.41167219  0.16034698  0.95352491     0.66230
H1326       H  0.46520412  0.14308966  0.96320283     0.15130
H1327       H  0.40638621  0.12711849  0.55603623     0.14840
N1328       N  0.46087065  0.11449960  0.56819643     0.73940
O1329       O  0.39598075  0.18352526  0.95558786    -0.39510
O1330       O  0.42029178  0.15247771  0.92684301    -0.39460
O1331       O  0.48059493  0.09468835  0.56906758    -0.40160
O1332       O  0.44910229  0.12180379  0.59358924    -0.40230
C1333       C  0.16759231  0.10839427  0.97011315    -0.12510
C1334       C  0.15745134  0.13150620  0.48860749     0.04500
C1335       C  0.17604754  0.14821749  0.50621829    -0.07800
C1336       C  0.20487315  0.14175747  0.50392164    -0.08540
C1337       C  0.21523052  0.11818268  0.48560584    -0.03090
C1338       C  0.19626809  0.10113185  0.96875470     0.03730
N1339       N  0.20538549  0.07527851  0.95212003     0.66230
H1340       H  0.15306434  0.09522331  0.95800790     0.15130
H1341       H  0.21924450  0.15491067  0.51702531     0.14840
N1342       N  0.16622159  0.17004941  0.52813996     0.73940
O1343       O  0.21204959  0.07721277  0.42362301    -0.39510
O1344       O  0.20227995  0.05032862  0.96425732    -0.39460
O1345       O  0.14885017  0.16330439  0.54863585    -0.40160
O1346       O  0.17965151  0.19296411  0.03198762    -0.40230
C1347       C  0.11543537  0.26834172  0.53845762    -0.12510
C1348       C  0.13985389  0.26777211  0.01971482     0.04500
C1349       C  0.14432660  0.24421490  0.99867814    -0.07800
C1350       C  0.12477477  0.22229926  0.99699602    -0.08540
C1351       C  0.10126528  0.22205586  0.01667140    -0.03090
C1352       C  0.09607397  0.24582003  0.53732576     0.03730
N1353       N  0.07116504  0.24814199  0.55635627     0.66230
H1354       H  0.11115790  0.28671117  0.55402112     0.15130
H1355       H  0.12890047  0.20466412  0.98068156     0.14840
N1356       N  0.16885699  0.24157148  0.97936295     0.73940
O1357       O  0.06176631  0.27297758  0.56579981    -0.39510
O1358       O  0.05817108  0.22570224  0.06363715    -0.39460
O1359       O  0.19330304  0.24195112  0.49180814    -0.40160
O1360       O  0.16633066  0.23430693  0.95085873    -0.40230
O1361       O  0.09553815  0.67315107  0.03303312    -0.80380
O1362       O  0.00668822  0.60741539  0.48689038    -0.80400
O1363       O  0.03357754  0.66222594  0.44940872    -0.80410
O1364       O  0.04218790  0.59966678  0.07923212    -0.80350
O1365       O  0.03352291  0.61507115  0.43641097    -0.80470
O1366       O  0.05438636  0.64466913  0.06723452    -0.80390
O1367       O  0.01237872  0.62634103  0.03285862    -0.80380
O1368       O  0.06599779  0.69150464  0.49594506    -0.80420
C1369       C  0.08525381  0.69496262  0.51670677     1.09310
C1370       C  0.49629891  0.62049679  0.51042354     1.09200
C1371       C  0.02471492  0.64182904  0.43207663     1.09330
C1372       C  0.04319974  0.62679981  0.08646655     1.09210
O1373       O  0.10896662  0.62242254  0.07059131    -0.80380
O1374       O  0.08601640  0.58592640  0.45880017    -0.80460
O1375       O  0.11391311  0.65658904  0.47813135    -0.80390
O1376       O  0.03366041  0.56589104  0.02036691    -0.80370
O1377       O  0.03548409  0.55957744  0.46783428    -0.80420
O1378       O  0.11528278  0.61733001  0.00826102    -0.80390
O1379       O  0.08977904  0.58405681  0.04901609    -0.80350
O1380       O  0.08434348  0.62857849  0.43408135    -0.80420
Co1381     Co  0.08449787  0.63110452  0.03529542     1.51530
Co1382     Co  0.04761787  0.59664171  0.47676150     1.51690
Co1383     Co  0.07313646  0.65872484  0.46619456     1.51570
Co1384     Co  0.05055670  0.60619820  0.03672100     1.51470
O1385       O  0.06004968  0.62982042  0.99797455    -1.42310
C1386       C  0.10827668  0.59467233  0.06853112     1.09240
C1387       C  0.09425766  0.60192729  0.43639095     1.09330
C1388       C  0.12740396  0.63533950  0.99164735     1.09270
C1389       C  0.02859717  0.55042103  0.99492510     1.09240
O1390       O  0.27767773  0.56758238  0.02291615    -0.80380
O1391       O  0.36498228  0.63536412  0.47672263    -0.80400
O1392       O  0.33338708  0.58103388  0.43754508    -0.80410
O1393       O  0.34092871  0.63337778  0.04642112    -0.80350
O1394       O  0.33699735  0.62869158  0.42645188    -0.80470
O1395       O  0.32496350  0.58913671  0.05192126    -0.80390
O1396       O  0.35705752  0.64688741  0.02453945    -0.80380
O1397       O  0.30223394  0.55096858  0.48261883    -0.80420
C1398       C  0.28499368  0.54682794  0.00449558     1.09310
C1399       C  0.37506559  0.64115450  0.00308903     1.09200
C1400       C  0.34460229  0.60148766  0.42255849     1.09330
C1401       C  0.34211049  0.60786190  0.06039553     1.09210
O1402       O  0.27283385  0.61378371  0.06435759    -0.80380
O1403       O  0.28500158  0.65784129  0.45295770    -0.80460
O1404       O  0.25601750  0.59062362  0.46982158    -0.80390
O1405       O  0.32415167  0.69153225  0.01144714    -0.80370
O1406       O  0.33621356  0.68657053  0.46126717    -0.80420
O1407       O  0.26095337  0.62593816  0.00388667    -0.80390
O1408       O  0.28877839  0.65692992  0.05016297    -0.80350
O1409       O  0.28418010  0.61838451  0.42399950    -0.80420
Co1410     Co  0.29302683  0.60711597  0.02698375     1.51530
Co1411     Co  0.32486729  0.64569447  0.46797662     1.51690
Co1412     Co  0.29530199  0.58626000  0.45530376     1.51570
Co1413     Co  0.31502661  0.64962471  0.01009619     1.51470
O1414       O  0.31413635  0.60908323  0.98982778    -1.42310
C1415       C  0.27374359  0.64119418  0.06871289     1.09240
C1416       C  0.27494020  0.64450730  0.42940055     1.09330
C1417       C  0.24556681  0.61139717  0.98607731     1.09270
C1418       C  0.33602539  0.70172167  0.48692766     1.09240
O1419       O  0.15172757  0.81454202  0.03883607    -0.80380
O1420       O  0.23000346  0.89389092  0.46697397    -0.80400
O1421       O  0.20594698  0.82791007  0.44918770    -0.80410
O1422       O  0.22430434  0.87143016  0.06847558    -0.80350
O1423       O  0.21217427  0.87686596  0.44777906    -0.80470
O1424       O  0.20300542  0.83028079  0.06508114    -0.80390
O1425       O  0.24282361  0.88133319  0.01409857    -0.80380
O1426       O  0.17491893  0.79805744  0.49760096    -0.80420
C1427       C  0.15738621  0.79408478  0.51939882     1.09310
C1428       C  0.24986255  0.88717432  0.48660428     1.09200
C1429       C  0.21765098  0.84998091  0.43725229     1.09330
C1430       C  0.22317881  0.84451495  0.07612275     1.09210
O1431       O  0.15400569  0.86110606  0.08212162    -0.80380
O1432       O  0.16220346  0.90863648  0.45757736    -0.80460
O1433       O  0.12974065  0.84036530  0.48654283    -0.80390
O1434       O  0.21734070  0.93030169  0.03820197    -0.80370
O1435       O  0.20385152  0.93727282  0.48797557    -0.80420
O1436       O  0.13684008  0.87347321  0.02261044    -0.80390
O1437       O  0.16836836  0.90186285  0.05849738    -0.80350
O1438       O  0.15776082  0.86445483  0.43851679    -0.80420
Co1439     Co  0.17029586  0.85244072  0.04319099     1.51530
Co1440     Co  0.19288848  0.89583440  0.48834528     1.51690
Co1441     Co  0.16890292  0.83372368  0.47050017     1.51570
Co1442     Co  0.20438528  0.89044873  0.03089679     1.51470
O1443       O  0.18955473  0.85554847  0.50537848    -1.42310
C1444       C  0.15388713  0.88903542  0.08018443     1.09240
C1445       C  0.15238800  0.89195490  0.43706582     1.09330
C1446       C  0.12051399  0.86133587  0.50366968     1.09270
C1447       C  0.21583096  0.94668519  0.51328534     1.09240
O1448       O  0.43929473  0.94542266  0.00634552    -0.80380
O1449       O  0.38267787  0.88278012  0.47163338    -0.80400
O1450       O  0.41630484  0.90533109  0.43374876    -0.80410
O1451       O  0.40739658  0.86699812  0.06361680    -0.80350
O1452       O  0.40578688  0.86073043  0.41973198    -0.80470
O1453       O  0.40920672  0.91487125  0.05179306    -0.80390
O1454       O  0.38049289  0.85699152  0.01390805    -0.80380
O1455       O  0.46488677  0.93014997  0.46677040    -0.80420
C1456       C  0.45716181  0.95046789  0.48550377     1.09310
C1457       C  0.36835647  0.87223161  0.99254172     1.09200
C1458       C  0.40210077  0.88838452  0.41527263     1.09330
C1459       C  0.39884144  0.89406388  0.06727036     1.09210
O1460       O  0.45982181  0.88100249  0.06776935    -0.80380
O1461       O  0.45851977  0.84495074  0.44531332    -0.80460
O1462       O  0.48570549  0.87365576  0.48516047    -0.80390
O1463       O  0.41198585  0.81030762  0.02788296    -0.80370
O1464       O  0.40758423  0.82204982  0.47603326    -0.80420
O1465       O  0.48860449  0.90776234  0.02137219    -0.80390
O1466       O  0.46091403  0.83979778  0.04087459    -0.80350
O1467       O  0.47065810  0.88606228  0.42358828    -0.80420
Co1468     Co  0.44804265  0.91141954  0.03488625     1.51530
Co1469     Co  0.42019399  0.86444810  0.46200725     1.51690
Co1470     Co  0.45122732  0.88970974  0.46208519     1.51570
Co1471     Co  0.42192077  0.84924828  0.02308320     1.51470
O1472       O  0.43248045  0.88401370  0.00252015    -1.42310
C1473       C  0.46922541  0.85459781  0.06428165     1.09240
C1474       C  0.47433866  0.85848620  0.42583544     1.09330
C1475       C  0.50000337  0.88717699  0.00504425     1.09270
C1476       C  0.40492166  0.80353723  0.99955733     1.09240
O1477       O  0.21135706  0.62466469  0.19386072    -0.80380
O1478       O  0.17498709  0.64380365  0.32413877    -0.80400
O1479       O  0.17573674  0.67469794  0.23975854    -0.80410
O1480       O  0.24396468  0.62019922  0.25868359    -0.80350
O1481       O  0.14216314  0.66366919  0.27206591    -0.80470
O1482       O  0.23986516  0.58353317  0.22680214    -0.80390
O1483       O  0.21319778  0.64850789  0.29904859    -0.80380
O1484       O  0.17558326  0.65490770  0.17764395    -0.80420
C1485       C  0.20081155  0.64418983  0.17398082     1.09310
C1486       C  0.19987555  0.65358319  0.32329217     1.09200
C1487       C  0.15446004  0.68263031  0.25626290     1.09330
C1488       C  0.25405023  0.60394645  0.23753125     1.09210
O1489       O  0.19158395  0.55494139  0.24732982    -0.80380
O1490       O  0.12970680  0.60430917  0.25475715    -0.80460
O1491       O  0.16280704  0.59919653  0.19121034    -0.80390
O1492       O  0.19605912  0.59375382  0.33012515    -0.80370
O1493       O  0.15932762  0.58320937  0.30361178    -0.80420
O1494       O  0.19954006  0.56789887  0.18411035    -0.80390
O1495       O  0.22590477  0.56448078  0.28113218    -0.80350
O1496       O  0.13134165  0.63886141  0.21921786    -0.80420
Co1497     Co  0.19787192  0.59026701  0.22209923     1.51530
Co1498     Co  0.15281715  0.62299857  0.28703715     1.51690
Co1499     Co  0.17385899  0.63596987  0.21825272     1.51570
Co1500     Co  0.21838283  0.60713122  0.29051070     1.51470
O1501       O  0.18586824  0.61474276  0.25902610    -1.42310
C1502       C  0.21278036  0.54620875  0.26450251     1.09240
C1503       C  0.11792528  0.61902172  0.23263001     1.09330
C1504       C  0.17536778  0.57849308  0.17510087     1.09270
C1505       C  0.17112831  0.58428457  0.32987648     1.09240
O1506       O  0.40966131  0.62589386  0.19031770    -0.80380
O1507       O  0.44871893  0.60163019  0.32790628    -0.80400
O1508       O  0.45305176  0.55934255  0.24408650    -0.80410
O1509       O  0.37853399  0.61642024  0.25856620    -0.80350
O1510       O  0.48150333  0.57612992  0.28122679    -0.80470
O1511       O  0.37797022  0.65641516  0.23093540    -0.80390
O1512       O  0.41284609  0.59189388  0.29985943    -0.80380
O1513       O  0.42300430  0.57866523  0.18883089    -0.80420
C1514       C  0.40893593  0.60095335  0.17653008     1.09310
C1515       C  0.42524523  0.58971471  0.32583231     1.09200
C1516       C  0.47345526  0.55514822  0.26403318     1.09330
C1517       C  0.36634397  0.63333178  0.23886087     1.09210
O1518       O  0.42487411  0.68967677  0.25134709    -0.80380
O1519       O  0.99239109  0.63267402  0.25828961    -0.80460
O1520       O  0.46140982  0.61344167  0.19513099    -0.80390
O1521       O  0.42449575  0.65021641  0.32787797    -0.80370
O1522       O  0.45991278  0.66002340  0.29996346    -0.80420
O1523       O  0.45665203  0.66125515  0.20228928    -0.80390
O1524       O  0.39091189  0.67620685  0.28188764    -0.80350
O1525       O  0.97994835  0.59910213  0.22330752    -0.80420
Co1526     Co  0.41961023  0.65673902  0.22265411     1.51530
Co1527     Co  0.46894569  0.61877617  0.28988441     1.51690
Co1528     Co  0.43516819  0.59758180  0.22765076     1.51570
Co1529     Co  0.40281522  0.63305137  0.29037133     1.51470
O1530       O  0.43486721  0.62773082  0.25955121    -1.42310
C1531       C  0.40383923  0.69656320  0.26826501     1.09240
C1532       C  0.99888149  0.61531153  0.23670463     1.09330
C1533       C  0.46632370  0.63966847  0.18616487     1.09270
C1534       C  0.44846260  0.66121090  0.32601669     1.09240
O1535       O  0.03334955  0.86146394  0.19225025    -0.80380
O1536       O  0.07303728  0.84268365  0.32726014    -0.80400
O1537       O  0.10080094  0.81748663  0.22762565    -0.80410
O1538       O  0.50599223  0.86492225  0.25835605    -0.80350
O1539       O  0.09712271  0.81360556  0.27876686    -0.80470
O1540       O  0.50689664  0.90108800  0.22482909    -0.80390
O1541       O  0.03260809  0.83872179  0.30445310    -0.80380
O1542       O  0.06814529  0.83133274  0.17788747    -0.80420
C1543       C  0.04401445  0.84355022  0.17175877     1.09310
C1544       C  0.04814781  0.83400848  0.32810500     1.09200
C1545       C  0.10455238  0.80270599  0.25286906     1.09330
C1546       C  0.49333238  0.88157969  0.23875663     1.09210
O1547       O  0.05618174  0.93147837  0.24371113    -0.80380
O1548       O  0.12384930  0.86602600  0.26093717    -0.80460
O1549       O  0.08742611  0.88186747  0.19180076    -0.80390
O1550       O  0.05507826  0.89502042  0.32757288    -0.80370
O1551       O  0.09300868  0.89729840  0.30062896    -0.80420
O1552       O  0.05179986  0.91492085  0.18106497    -0.80390
O1553       O  0.02338208  0.92270967  0.27812711    -0.80350
O1554       O  0.10461947  0.87149963  0.21286624    -0.80420
Co1555     Co  0.04956737  0.89436782  0.22071685     1.51530
Co1556     Co  0.09484615  0.85594056  0.28946147     1.51690
Co1557     Co  0.06946011  0.84849527  0.21937485     1.51570
Co1558     Co  0.03052218  0.87980175  0.29032053     1.51470
O1559       O  0.06181996  0.86937747  0.25991352    -1.42310
C1560       C  0.03656486  0.94083323  0.26176459     1.09240
C1561       C  0.12487062  0.87472124  0.23311423     1.09330
C1562       C  0.07639483  0.90397777  0.17467336     1.09270
C1563       C  0.08105891  0.90128834  0.32613965     1.09240
O1564       O  0.33136522  0.90652196  0.19415187    -0.80380
O1565       O  0.29435184  0.92479745  0.31289774    -0.80400
O1566       O  0.26734903  0.92300210  0.21435316    -0.80410
O1567       O  0.36533208  0.85665256  0.27981322    -0.80350
O1568       O  0.30103940  0.93490325  0.24780847    -0.80470
O1569       O  0.36050238  0.89039714  0.24399119    -0.80390
O1570       O  0.33268307  0.89912146  0.29994027    -0.80380
O1571       O  0.29622330  0.89225201  0.16709223    -0.80420
C1572       C  0.31957405  0.90476936  0.16783434     1.09310
C1573       C  0.32003250  0.91650568  0.31915021     1.09200
C1574       C  0.27987094  0.94243831  0.23016672     1.09330
C1575       C  0.37638186  0.87576492  0.26254631     1.09210
O1576       O  0.35308217  0.82789722  0.23093766    -0.80380
O1577       O  0.25108716  0.90744279  0.26749397    -0.80460
O1578       O  0.28241101  0.83767598  0.19829726    -0.80390
O1579       O  0.31846178  0.84608414  0.32598890    -0.80370
O1580       O  0.28083347  0.86778533  0.30308816    -0.80420
O1581       O  0.32296639  0.84441267  0.17695678    -0.80390
O1582       O  0.32084210  0.81847437  0.26613575    -0.80350
O1583       O  0.25496868  0.86698746  0.24261788    -0.80420
Co1584     Co  0.34128051  0.86800187  0.21267285     1.51530
Co1585     Co  0.29393698  0.90111682  0.27462385     1.51690
Co1586     Co  0.27594474  0.87943290  0.20714550     1.51570
Co1587     Co  0.32215167  0.85903582  0.28190038     1.51470
O1588       O  0.30793230  0.87488285  0.23905521    -1.42310
C1589       C  0.34172424  0.80983985  0.24943408     1.09240
C1590       C  0.23909149  0.88680497  0.25357069     1.09330
C1591       C  0.29910403  0.83244324  0.17634197     1.09270
C1592       C  0.29217987  0.85454786  0.32738435     1.09240
C1593       C  0.44525202  0.90449722  0.23546971    -0.12510
C1594       C  0.46263505  0.87879923  0.23673318     0.04500
C1595       C  0.45126335  0.85189999  0.24634393    -0.07800
C1596       C  0.42383211  0.85233762  0.25790566    -0.08540
C1597       C  0.40682747  0.87831699  0.25822592    -0.03090
C1598       C  0.41738390  0.90467740  0.24580359     0.03730
N1599       N  0.40034145  0.93186917  0.24365663     0.66230
H1600       H  0.45399395  0.92502799  0.22861600     0.15130
H1601       H  0.41508271  0.83188237  0.26499847     0.14840
N1602       N  0.46751237  0.82412397  0.24529974     0.73940
O1603       O  0.40414695  0.95006165  0.22179301    -0.39510
O1604       O  0.38319503  0.93900362  0.26494928    -0.39460
O1605       O  0.48630586  0.81963737  0.22501381    -0.40160
O1606       O  0.46154812  0.80306737  0.26298401    -0.40230
C1607       C  0.19019257  0.91130567  0.25072541    -0.12510
C1608       C  0.20869534  0.88699032  0.24460057     0.04500
C1609       C  0.19857191  0.86358425  0.22630731    -0.07800
C1610       C  0.17105210  0.86537934  0.21408727    -0.08540
C1611       C  0.15165190  0.88661038  0.22491547    -0.03090
C1612       C  0.16131789  0.91100665  0.24185863     0.03730
N1613       N  0.14180804  0.93458292  0.25137623     0.66230
H1614       H  0.19797640  0.92984818  0.26345377     0.15130
H1615       H  0.16348196  0.84700615  0.20083895     0.14840
N1616       N  0.21495895  0.83653526  0.22200082     0.73940
O1617       O  0.14937683  0.95337967  0.27111400    -0.39510
O1618       O  0.11747112  0.93786310  0.23866187    -0.39460
O1619       O  0.22379363  0.82146665  0.24568482    -0.40160
O1620       O  0.21533073  0.82489871  0.19519801    -0.40230
C1621       C  0.49271113  0.51005293  0.23636696    -0.12510
C1622       C  0.49043521  0.52601415  0.26453885     0.04500
C1623       C  0.00676286  0.51513942  0.29107418    -0.07800
C1624       C  0.02328319  0.48828821  0.28914648    -0.08540
C1625       C  0.02515630  0.97229225  0.26101574    -0.03090
C1626       C  0.01010524  0.48400394  0.23423037     0.03730
N1627       N  0.51223625  0.96975206  0.20445660     0.66230
H1628       H  0.48152202  0.51835328  0.21532499     0.15130
H1629       H  0.03400206  0.47928065  0.31016254     0.14840
N1630       N  0.00574534  0.53008790  0.32063177     0.73940
O1631       O  0.49007761  0.96238063  0.19021858    -0.39510
O1632       O  0.03465153  0.97161114  0.18924792    -0.39460
O1633       O  0.48216253  0.53802236  0.33196962    -0.40160
O1634       O  0.02790947  0.53140964  0.33752778    -0.40230
C1635       C  0.38273203  0.77447231  0.23979941    -0.12510
C1636       C  0.35654466  0.78010693  0.25442927     0.04500
C1637       C  0.34781814  0.75910145  0.27640690    -0.07800
C1638       C  0.36529513  0.73360911  0.28306227    -0.08540
C1639       C  0.39074174  0.72735674  0.26718397    -0.03090
C1640       C  0.39995423  0.74890522  0.24609596     0.03730
N1641       N  0.42680953  0.74559923  0.23103794     0.66230
H1642       H  0.39057574  0.79057106  0.22378401     0.15130
H1643       H  0.35792564  0.71762584  0.29951843     0.14840
N1644       N  0.32089551  0.76244932  0.29122883     0.73940
O1645       O  0.42878707  0.75260185  0.20239344    -0.39510
O1646       O  0.44914315  0.74063054  0.24746204    -0.39460
O1647       O  0.29857578  0.76615139  0.27451513    -0.40160
O1648       O  0.31893926  0.75632054  0.32009601    -0.40230
C1649       C  0.22119653  0.00274059  0.23036648    -0.12510
C1650       C  0.22743201  0.01713069  0.25864148     0.04500
C1651       C  0.25224337  0.00779369  0.27603662    -0.07800
C1652       C  0.27062019  0.98571203  0.26399142    -0.08540
C1653       C  0.26442979  0.97120785  0.23575314    -0.03090
C1654       C  0.23943643  0.98027920  0.21849648     0.03730
N1655       N  0.23254318  0.96764441  0.18856159     0.66230
H1656       H  0.20283374  0.01023240  0.21622784     0.15130
H1657       H  0.28908527  0.97856951  0.27813512     0.14840
N1658       N  0.25893649  0.52004308  0.30624028     0.73940
O1659       O  0.20698766  0.96553129  0.18020650    -0.39510
O1660       O  0.25157683  0.96274873  0.16861048    -0.39460
O1661       O  0.23997956  0.52364617  0.32652588    -0.40160
O1662       O  0.28432841  0.52396395  0.31406677    -0.40230
C1663       C  0.15488513  0.73554103  0.23924272    -0.12510
C1664       C  0.14142425  0.71341227  0.25532511     0.04500
C1665       C  0.11518757  0.72122570  0.27001891    -0.07800
C1666       C  0.10389929  0.75033629  0.26866871    -0.08540
C1667       C  0.11744410  0.77219049  0.25270006    -0.03090
C1668       C  0.14335934  0.76473487  0.23826509     0.03730
N1669       N  0.15987082  0.78725083  0.22619137     0.66230
H1670       H  0.17508332  0.73044162  0.22846477     0.15130
H1671       H  0.08394787  0.75586048  0.27986829     0.14840
N1672       N  0.09910323  0.70016524  0.28598601     0.73940
O1673       O  0.16561105  0.80826476  0.24396067    -0.39510
O1674       O  0.17316006  0.78330128  0.20100782    -0.39460
O1675       O  0.09041632  0.70581154  0.31329604    -0.40160
O1676       O  0.08756159  0.68050161  0.27028636    -0.40230
C1677       C  0.28805651  0.64027391  0.22570692    -0.12510
C1678       C  0.28189374  0.61044542  0.22593936     0.04500
C1679       C  0.30390586  0.58856148  0.22301443    -0.07800
C1680       C  0.33185560  0.59708249  0.22440193    -0.08540
C1681       C  0.33785879  0.62677369  0.22821139    -0.03090
C1682       C  0.31576643  0.64870071  0.22692270     0.03730
N1683       N  0.32067793  0.67906028  0.23190578     0.66230
H1684       H  0.27112669  0.65718539  0.22784201     0.15130
H1685       H  0.34905187  0.58031168  0.22441305     0.14840
N1686       N  0.29851206  0.55784120  0.22168367     0.73940
O1687       O  0.30926532  0.69833858  0.21348383    -0.39510
O1688       O  0.33012481  0.68685525  0.25834580    -0.39460
O1689       O  0.28048477  0.54893923  0.20216012    -0.40160
O1690       O  0.31474642  0.53915406  0.23623057    -0.40230
C1691       C  0.07109396  0.63974181  0.21558478    -0.12510
C1692       C  0.08776960  0.61499487  0.22564989     0.04500
C1693       C  0.07439360  0.58887130  0.23380638    -0.07800
C1694       C  0.04489717  0.58891153  0.23315308    -0.08540
C1695       C  0.02846475  0.61482048  0.22723780    -0.03090
C1696       C  0.04169942  0.64070623  0.21806413     0.03730
N1697       N  0.02614116  0.66825884  0.21162675     0.66230
H1698       H  0.08107886  0.65971556  0.20920574     0.15130
H1699       H  0.03483175  0.56928456  0.24058294     0.14840
N1700       N  0.08987568  0.56266487  0.24483822     0.73940
O1701       O  0.03333709  0.68417551  0.18904435    -0.39510
O1702       O  0.00978675  0.67955627  0.23182588    -0.39460
O1703       O  0.09927611  0.56162098  0.27287466    -0.40160
O1704       O  0.08558378  0.53868952  0.23129679    -0.40230
C1705       C  0.04385568  0.84428078  0.38409513    -0.12510
C1706       C  0.03462808  0.82800936  0.35850208     0.04500
C1707       C  0.50797840  0.81532726  0.35994289    -0.07800
C1708       C  0.48984048  0.82302954  0.38490073    -0.08540
C1709       C  0.49727960  0.84379227  0.40744652    -0.03090
C1710       C  0.02526707  0.85396430  0.40750331     0.03730
N1711       N  0.03532231  0.87529297  0.42942825     0.66230
H1712       H  0.06438742  0.85361604  0.38330558     0.15130
H1713       H  0.46878869  0.81485744  0.38515137     0.14840
N1714       N  0.49854433  0.79604106  0.33556626     0.73940
O1715       O  0.06137906  0.87459521  0.43656937    -0.39510
O1716       O  0.52074205  0.89864615  0.43486859    -0.39460
O1717       O  0.51625653  0.78155055  0.31914042    -0.40160
O1718       O  0.47261203  0.79138563  0.33218432    -0.40230
C1719       C  0.01798588  0.84097417  0.08539073    -0.12510
C1720       C  0.48861890  0.84164451  0.08950414     0.04500
C1721       C  0.47848427  0.83743897  0.12010931    -0.07800
C1722       C  0.49766779  0.83631778  0.14590405    -0.08540
C1723       C  0.02702519  0.83790351  0.14238338    -0.03090
C1724       C  0.03762727  0.83874224  0.11113894     0.03730
N1725       N  0.06744355  0.83945498  0.10444768     0.66230
H1726       H  0.02564595  0.84464370  0.06205219     0.15130
H1727       H  0.48940624  0.83512813  0.16931529     0.14840
N1728       N  0.44873584  0.83503398  0.12545249     0.73940
O1729       O  0.07592246  0.83443073  0.07692088    -0.39510
O1730       O  0.08523022  0.84721750  0.12479430    -0.39460
O1731       O  0.43321713  0.82374700  0.10480748    -0.40160
O1732       O  0.43874763  0.84012459  0.15231782    -0.40230
C1733       C  0.32975025  0.90168171  0.37316774    -0.12510
C1734       C  0.33544500  0.92162025  0.34942224     0.04500
C1735       C  0.36226956  0.93414406  0.35021689    -0.07800
C1736       C  0.38319764  0.92400120  0.37291251    -0.08540
C1737       C  0.37872953  0.90031692  0.39332651    -0.03090
C1738       C  0.35124851  0.88903540  0.39312033     0.03730
N1739       N  0.34465419  0.86362230  0.41117167     0.66230
H1740       H  0.30927076  0.89237843  0.37299776     0.15130
H1741       H  0.40365159  0.93352502  0.37355101     0.14840
N1742       N  0.36848682  0.95699232  0.32822955     0.73940
O1743       O  0.32015567  0.86261002  0.42200837    -0.39510
O1744       O  0.35857934  0.83957225  0.40707641    -0.39460
O1745       O  0.34880520  0.97063359  0.31262774    -0.40160
O1746       O  0.39338348  0.96530661  0.32610433    -0.40230
C1747       C  0.34882385  0.90341195  0.08422332    -0.12510
C1748       C  0.37800307  0.90178610  0.09169319     0.04500
C1749       C  0.38708985  0.90745512  0.12269547    -0.07800
C1750       C  0.36690584  0.91071062  0.14610472    -0.08540
C1751       C  0.33757189  0.90922163  0.13972423    -0.03090
C1752       C  0.32824048  0.90816293  0.10775012     0.03730
N1753       N  0.29880565  0.91346001  0.09858570     0.66230
H1754       H  0.34220949  0.90109423  0.05984034     0.15130
H1755       H  0.37461638  0.91349961  0.17002055     0.14840
N1756       N  0.41662017  0.90947023  0.13106715     0.73940
O1757       O  0.28123289  0.92398577  0.11796489    -0.39510
O1758       O  0.29132954  0.91304206  0.06987767    -0.39460
O1759       O  0.42542768  0.90337732  0.15874963    -0.40160
O1760       O  0.43302686  0.92147009  0.11251701    -0.40230
C1761       C  0.23244803  0.86830778  0.38632098    -0.12510
C1762       C  0.23742995  0.84682057  0.40968001     0.04500
C1763       C  0.26124372  0.82614966  0.40584636    -0.07800
C1764       C  0.27895500  0.82897339  0.37904098    -0.08540
C1765       C  0.27344228  0.85088568  0.35572956    -0.03090
C1766       C  0.24929396  0.87039015  0.35996918     0.03730
N1767       N  0.24110547  0.89332380  0.33802199     0.66230
H1768       H  0.21480416  0.88436291  0.38847222     0.15130
H1769       H  0.29722093  0.81389639  0.37621229     0.14840
N1770       N  0.26870104  0.80294017  0.42845775     0.73940
O1771       O  0.22024474  0.88953088  0.31982720    -0.39510
O1772       O  0.24675893  0.91930428  0.34484835    -0.39460
O1773       O  0.25320934  0.79789732  0.45138818    -0.40160
O1774       O  0.29080125  0.78650371  0.42502398    -0.40230
C1775       C  0.29404773  0.83369769  0.11838464    -0.12510
C1776       C  0.28648396  0.82093596  0.14675821     0.04500
C1777       C  0.26070014  0.80629590  0.14719622    -0.07800
C1778       C  0.23973451  0.81315206  0.12348026    -0.08540
C1779       C  0.24587022  0.83072492  0.09754812    -0.03090
C1780       C  0.27437983  0.83698513  0.09322165     0.03730
N1781       N  0.28381918  0.84360090  0.06246526     0.66230
H1782       H  0.31475287  0.84241198  0.11631935     0.15130
H1783       H  0.21862123  0.80547923  0.12562528     0.14840
N1784       N  0.25577856  0.78472797  0.17122817     0.73940
O1785       O  0.30688957  0.85564569  0.05899348    -0.39510
O1786       O  0.27324758  0.83024015  0.03956454    -0.39460
O1787       O  0.23377971  0.77028840  0.16989161    -0.40160
O1788       O  0.27510397  0.77682872  0.19097124    -0.40230
C1789       C  0.14542756  0.89039556  0.38058149    -0.12510
C1790       C  0.13648653  0.90318199  0.40853722     0.04500
C1791       C  0.10993319  0.91931518  0.40868065    -0.07800
C1792       C  0.09156355  0.91869344  0.38181155    -0.08540
C1793       C  0.10010408  0.90381501  0.35440604    -0.03090
C1794       C  0.12796002  0.89029099  0.35403274     0.03730
N1795       N  0.13834544  0.87348738  0.32800422     0.66230
H1796       H  0.16563463  0.87796853  0.37999231     0.15130
H1797       H  0.07088527  0.93014262  0.38212301     0.14840
N1798       N  0.10186040  0.93708479  0.43505465     0.73940
O1799       O  0.15784942  0.88341108  0.31197707    -0.39510
O1800       O  0.13480856  0.84622266  0.32754507    -0.39460
O1801       O  0.11927577  0.95429159  0.44657485    -0.40160
O1802       O  0.07613500  0.94053278  0.44214333    -0.40230
C1803       C  0.12305459  0.91752016  0.15521010    -0.12510
C1804       C  0.09394889  0.91498113  0.14877132     0.04500
C1805       C  0.08484350  0.91315773  0.11702372    -0.07800
C1806       C  0.10525956  0.90703478  0.09388650    -0.08540
C1807       C  0.13441863  0.90596366  0.10110792    -0.03090
C1808       C  0.14343815  0.91351451  0.13164048     0.03730
N1809       N  0.17314459  0.91474095  0.13942599     0.66230
H1810       H  0.13000045  0.92086704  0.17918828     0.15130
H1811       H  0.09836787  0.90087713  0.07065549     0.14840
N1812       N  0.05521820  0.91501439  0.10840860     0.73940
O1813       O  0.18207364  0.91085928  0.16740211    -0.39510
O1814       O  0.19040066  0.92167309  0.11877296    -0.39300
O1815       O  0.03843006  0.93271079  0.12247564    -0.40160
O1816       O  0.04661238  0.90301647  0.08357545    -0.40230
C1817       C  0.32547270  0.90323230  0.48060738    -0.12510
C1818       C  0.33764230  0.87578913  0.99009359     0.04500
C1819       C  0.32086001  0.85114179  0.99060849    -0.07800
C1820       C  0.29207112  0.85502270  0.98334482    -0.08540
C1821       C  0.27941258  0.88296985  0.47795695    -0.03090
C1822       C  0.29639743  0.90703635  0.47401648     0.03730
N1823       N  0.28486094  0.93476453  0.46203678     0.66230
H1824       H  0.33887499  0.92153768  0.47767092     0.15130
H1825       H  0.27900349  0.83634832  0.98417022     0.14840
N1826       N  0.33237045  0.82217320  0.99848155     0.73940
O1827       O  0.29845929  0.95753957  0.46606139    -0.39510
O1828       O  0.26491026  0.93540949  0.44179617    -0.39460
O1829       O  0.34309324  0.81724372  0.02557959    -0.40160
O1830       O  0.32518957  0.80066253  0.98214570    -0.40230
C1831       C  0.07179723  0.84669659  0.49871893    -0.12510
C1832       C  0.08995080  0.86951295  0.50377654     0.04500
C1833       C  0.07832068  0.89825851  0.01051405    -0.07800
C1834       C  0.04880713  0.90266184  0.01262999    -0.08540
C1835       C  0.03073573  0.87981776  0.00719507    -0.03090
C1836       C  0.04250599  0.85143237  0.49973625     0.03730
N1837       N  0.02536574  0.82724104  0.49229060     0.66230
H1838       H  0.08048402  0.82465061  0.49399917     0.15130
H1839       H  0.03967318  0.92457624  0.01702438     0.14840
N1840       N  0.09544950  0.92332195  0.01456075     0.73940
O1841       O  0.03225398  0.81006216  0.47018008    -0.39510
O1842       O  0.50663460  0.81990335  0.01092827    -0.39460
O1843       O  0.11925914  0.92420852  0.50202669    -0.40160
O1844       O  0.08560031  0.94605438  0.02832711    -0.40230
C1845       C  0.26528489  0.66191189  0.37482974    -0.12510
C1846       C  0.25499263  0.65904487  0.40518649     0.04500
C1847       C  0.22528757  0.66345904  0.40899150    -0.07800
C1848       C  0.20676457  0.66282819  0.38212955    -0.08540
C1849       C  0.21730061  0.66284437  0.35148564    -0.03090
C1850       C  0.24700933  0.66611033  0.34845483     0.03730
N1851       N  0.25917384  0.67267731  0.31865975     0.66230
H1852       H  0.28796921  0.66048500  0.37158656     0.15130
H1853       H  0.18412886  0.66242718  0.38508152     0.14840
N1854       N  0.21384520  0.67085105  0.43908535     0.73940
O1855       O  0.24799404  0.69309543  0.30148526    -0.39510
O1856       O  0.28307119  0.66118315  0.31155486    -0.39460
O1857       O  0.22927623  0.68231730  0.45969902    -0.40160
O1858       O  0.18736602  0.67268484  0.44234793    -0.40230
C1859       C  0.22801845  0.66169689  0.09161449    -0.12510
C1860       C  0.25712702  0.65367481  0.09565046     0.04500
C1861       C  0.26755514  0.64818940  0.12648035    -0.07800
C1862       C  0.24879426  0.64703946  0.15153642    -0.08540
C1863       C  0.21939185  0.65241267  0.14737589    -0.03090
C1864       C  0.20919406  0.66154619  0.11715111     0.03730
N1865       N  0.17976142  0.66897938  0.11147443     0.66230
H1866       H  0.21945289  0.66606543  0.06826520     0.15130
H1867       H  0.25727341  0.64099113  0.17446884     0.14840
N1868       N  0.29730759  0.64325825  0.13242976     0.73940
O1869       O  0.17190063  0.69428549  0.10124696    -0.39510
O1870       O  0.16169040  0.64998812  0.11523092    -0.39460
O1871       O  0.31401186  0.66079908  0.12084037    -0.40160
O1872       O  0.30658417  0.62422838  0.15239024    -0.40230
C1873       C  0.39479030  0.59348818  0.40759754    -0.12510
C1874       C  0.36592457  0.59317713  0.39924673     0.04500
C1875       C  0.35776287  0.58482792  0.36872541    -0.07800
C1876       C  0.37869833  0.57930306  0.34657506    -0.08540
C1877       C  0.40756176  0.58336467  0.35341476    -0.03090
C1878       C  0.41595766  0.58840498  0.38505546     0.03730
N1879       N  0.44535391  0.58804477  0.39468414     0.66230
H1880       H  0.40073599  0.59804605  0.43177064     0.15130
H1881       H  0.37188586  0.57396241  0.32288255     0.14840
N1882       N  0.32843258  0.58373227  0.35912384     0.73940
O1883       O  0.45265348  0.60006404  0.42004239    -0.39510
O1884       O  0.46335255  0.57139961  0.38107051    -0.39460
O1885       O  0.32062445  0.59079859  0.33134208    -0.40160
O1886       O  0.31067475  0.57343068  0.37731365    -0.40230
C1887       C  0.36789918  0.62855169  0.10366542    -0.12510
C1888       C  0.36224421  0.60305330  0.08746806     0.04500
C1889       C  0.37366217  0.57559063  0.09949060    -0.07800
C1890       C  0.38920261  0.57492558  0.12858670    -0.08540
C1891       C  0.39264268  0.60084065  0.14595502    -0.03090
C1892       C  0.38089644  0.62788076  0.13298559     0.03730
N1893       N  0.37901613  0.65492616  0.15007817     0.66230
H1894       H  0.35993656  0.64982812  0.09471133     0.15130
H1895       H  0.39852032  0.55423020  0.13769057     0.14840
N1896       N  0.37105777  0.54881906  0.08210801     0.73940
O1897       O  0.38794146  0.67776636  0.13764152    -0.39510
O1898       O  0.36024562  0.65805035  0.17054363    -0.39460
O1899       O  0.37066435  0.54926398  0.05238265    -0.40160
O1900       O  0.37296986  0.52426881  0.09622633    -0.40230
C1901       C  0.26039195  0.01060896  0.03596011    -0.12510
C1902       C  0.26936608  0.51966440  0.00625594     0.04500
C1903       C  0.25758861  0.50696831  0.47894692    -0.07800
C1904       C  0.23808744  0.98514760  0.48229065    -0.08540
C1905       C  0.23095062  0.97439682  0.51198916    -0.03090
C1906       C  0.24145094  0.98825108  0.03910105     0.03730
N1907       N  0.23147655  0.98165177  0.06974237     0.66230
H1908       H  0.26775049  0.02143781  0.05700963     0.15130
H1909       H  0.22944193  0.47555498  0.46118245     0.14840
N1910       N  0.26460701  0.51599138  0.44766328     0.73940
O1911       O  0.24220669  0.95968974  0.08482815    -0.39510
O1912       O  0.21664038  0.00092577  0.08412676    -0.39460
O1913       O  0.29004906  0.51428575  0.43927713    -0.40160
O1914       O  0.24538893  0.51883977  0.42661273    -0.40230
C1915       C  0.36272470  0.74217605  0.46266509    -0.12510
C1916       C  0.35265063  0.72861920  0.98976942     0.04500
C1917       C  0.36216068  0.73845111  0.01954346    -0.07800
C1918       C  0.38034735  0.76150544  0.02155030    -0.08540
C1919       C  0.38997033  0.77568482  0.99465389    -0.03090
C1920       C  0.38167228  0.76507212  0.46463611     0.03730
N1921       N  0.39292681  0.77623429  0.43607371     0.66230
H1922       H  0.35666921  0.73411710  0.43969582     0.15130
H1923       H  0.38650513  0.76869879  0.04484645     0.14840
N1924       N  0.35461297  0.72464838  0.04829414     0.73940
O1925       O  0.41910659  0.77977016  0.43435304    -0.39510
O1926       O  0.37798989  0.77719365  0.91105537    -0.39460
O1927       O  0.36753566  0.70083357  0.55687703    -0.40160
O1928       O  0.34028092  0.73927972  0.06809207    -0.40230
C1929       C  0.48340153  0.67097473  0.40715804    -0.12510
C1930       C  0.00552409  0.64899826  0.40505550     0.04500
C1931       C  0.00963080  0.63422167  0.37641659    -0.07800
C1932       C  0.99160226  0.64105069  0.35117883    -0.08540
C1933       C  0.46792035  0.66080511  0.35362095    -0.03090
C1934       C  0.46397227  0.67692525  0.38171743     0.03730
N1935       N  0.44151382  0.69954073  0.38464078     0.66230
H1936       H  0.48096172  0.68296303  0.42895113     0.15130
H1937       H  0.99564996  0.62922296  0.32959669     0.14840
N1938       N  0.03211742  0.61225824  0.37202084     0.73940
O1939       O  0.43844369  0.71327438  0.41018353    -0.39510
O1940       O  0.42561609  0.70719153  0.36142653    -0.39460
O1941       O  0.02978512  0.58674009  0.38311184    -0.40160
O1942       O  0.04885090  0.61545547  0.34969696    -0.40230
C1943       C  0.50904553  0.66101458  0.11428964    -0.12510
C1944       C  0.02911263  0.63701195  0.11493385     0.04500
C1945       C  0.03002609  0.61730465  0.14006302    -0.07800
C1946       C  0.00743342  0.61748672  0.15979892    -0.08540
C1947       C  0.48757319  0.64159728  0.16113905    -0.03090
C1948       C  0.48854590  0.66425562  0.13802354     0.03730
N1949       N  0.46784518  0.68865610  0.13613975     0.66230
H1950       H  0.50815617  0.67596214  0.09430224     0.15130
H1951       H  0.00644930  0.59868549  0.17512379     0.14840
N1952       N  0.05391456  0.59690369  0.14540921     0.73940
O1953       O  0.47295649  0.71158957  0.12090238    -0.39510
O1954       O  0.44334175  0.68634371  0.14651851    -0.39460
O1955       O  0.07851620  0.60582044  0.14276814    -0.40160
O1956       O  0.05084266  0.57214915  0.15803876    -0.40230
C1957       C  0.15466283  0.56632192  0.38390168    -0.12510
C1958       C  0.15198807  0.58596538  0.35799014     0.04500
C1959       C  0.12828765  0.60638103  0.35747381    -0.07800
C1960       C  0.11076778  0.60926692  0.38305182    -0.08540
C1961       C  0.11373041  0.59148012  0.41007531    -0.03090
C1962       C  0.13519403  0.56774561  0.40948616     0.03730
N1963       N  0.13804024  0.54498833  0.43344572     0.66230
H1964       H  0.17163592  0.54935595  0.38382616     0.15130
H1965       H  0.09389191  0.62629103  0.38105535     0.14840
N1966       N  0.12049775  0.62454422  0.33080955     0.73940
O1967       O  0.15201392  0.52117070  0.42801612    -0.39510
O1968       O  0.12745925  0.54837866  0.46022325    -0.39460
O1969       O  0.10444211  0.61426303  0.31007303    -0.40160
O1970       O  0.11979085  0.65208919  0.33425062    -0.40230
C1971       C  0.17376470  0.57877517  0.11718626    -0.12510
C1972       C  0.16174668  0.56947141  0.14509350     0.04500
C1973       C  0.13434511  0.55836697  0.14355328    -0.07800
C1974       C  0.11800913  0.56209026  0.11526857    -0.08540
C1975       C  0.12852177  0.57631871  0.08895376    -0.03090
C1976       C  0.15765532  0.58163406  0.08897274     0.03730
N1977       N  0.17084980  0.59030909  0.06056184     0.66230
H1978       H  0.19524396  0.58585927  0.11792692     0.15130
H1979       H  0.09607706  0.55650243  0.11473048     0.14840
N1980       N  0.12273357  0.54379516  0.17019850     0.73940
O1981       O  0.19392894  0.60290085  0.06177677    -0.39510
O1982       O  0.16244406  0.58031666  0.03457999    -0.39460
O1983       O  0.13745830  0.53863953  0.19496792    -0.40160
O1984       O  0.09924377  0.53215048  0.16739671    -0.40230
C1985       C  0.01080018  0.00700993  0.46720887    -0.12510
C1986       C  0.01205039  0.52319273  0.99538729     0.04500
C1987       C  0.49397195  0.51561384  0.02002833    -0.07800
C1988       C  0.47477175  0.49334450  0.01518183    -0.08540
C1989       C  0.47330812  0.97773908  0.98672022    -0.03090
C1990       C  0.49158624  0.98506966  0.46232999     0.03730
N1991       N  0.49053454  0.97113525  0.43207369     0.66230
H1992       H  0.02418965  0.01227967  0.44785115     0.15130
H1993       H  0.46177147  0.48721301  0.03456371     0.14840
N1994       N  0.49488558  0.52953626  0.05022671     0.73940
O1995       O  0.01305373  0.96547624  0.41735076    -0.39510
O1996       O  0.46703111  0.96842267  0.91807660    -0.39460
O1997       O  0.47224132  0.53432208  0.56498362    -0.40160
O1998       O  0.51818654  0.53048119  0.06510234    -0.40230
C1999       C  0.45247545  0.63929750  0.48350822    -0.12510
C2000       C  0.46554455  0.62838748  0.51132265     0.04500
C2001       C  0.44886959  0.62517711  0.03853509    -0.07800
C2002       C  0.41932830  0.63121666  0.03607336    -0.08540
C2003       C  0.40626849  0.64049132  0.50755526    -0.03090
C2004       C  0.42339860  0.64628217  0.48159571     0.03730
N2005       N  0.41167219  0.66034689  0.45352477     0.66230
H2006       H  0.46520413  0.64308958  0.46320273     0.15130
H2007       H  0.40638615  0.62711823  0.05603636     0.14840
N2008       N  0.46087059  0.61449930  0.06819658     0.73940
O2009       O  0.39598071  0.68352515  0.45558767    -0.39510
O2010       O  0.42029183  0.65247761  0.42684290    -0.39460
O2011       O  0.48059508  0.59468829  0.06906767    -0.40160
O2012       O  0.44910207  0.62180318  0.09358939    -0.40230
C2013       C  0.16759230  0.60839425  0.47011327    -0.12510
C2014       C  0.15745128  0.63150627  0.98860731     0.04500
C2015       C  0.17604747  0.64821751  0.00621820    -0.07800
C2016       C  0.20487309  0.64175748  0.00392158    -0.08540
C2017       C  0.21523047  0.61818269  0.98560578    -0.03090
C2018       C  0.19626809  0.60113185  0.46875478     0.03730
N2019       N  0.20538549  0.57527852  0.45212007     0.66230
H2020       H  0.15306431  0.59522326  0.45800803     0.15130
H2021       H  0.21924443  0.65491065  0.01702530     0.14840
N2022       N  0.16622151  0.67004936  0.02813992     0.73940
O2023       O  0.21204903  0.57721251  0.92362287    -0.39510
O2024       O  0.20227988  0.55032862  0.46425728    -0.39460
O2025       O  0.14885016  0.66330424  0.04863585    -0.40160
O2026       O  0.17965154  0.69296414  0.53198764    -0.40230
C2027       C  0.11543536  0.76834172  0.03845764    -0.12510
C2028       C  0.13985387  0.76777215  0.51971481     0.04500
C2029       C  0.14432659  0.74421493  0.49867814    -0.07800
C2030       C  0.12477476  0.72229929  0.49699603    -0.08540
C2031       C  0.10126527  0.72205589  0.51667140    -0.03090
C2032       C  0.09607395  0.74582003  0.03732577     0.03730
N2033       N  0.07116501  0.74814201  0.05635626     0.66230
H2034       H  0.11115788  0.78671118  0.05402113     0.15130
H2035       H  0.12890047  0.70466414  0.48068157     0.14840
N2036       N  0.16885698  0.74157151  0.47936296     0.73940
O2037       O  0.06176627  0.77297760  0.06579977    -0.39510
O2038       O  0.05817104  0.72570230  0.56363711    -0.39460
O2039       O  0.19330306  0.74195109  0.99180822    -0.40160
O2040       O  0.16633066  0.73430694  0.45085874    -0.40230
O2041       O  0.09553812  0.67315110  0.53303316    -0.80380
O2042       O  0.00668817  0.60741538  0.98689046    -0.80400
O2043       O  0.03357742  0.66222599  0.94940881    -0.80410
O2044       O  0.04218781  0.59966685  0.57923211    -0.80350
O2045       O  0.03352277  0.61507121  0.93641099    -0.80470
O2046       O  0.05438630  0.64466919  0.56723452    -0.80390
O2047       O  0.01237870  0.62634107  0.53285855    -0.80380
O2048       O  0.06599776  0.69150465  0.99594511    -0.80420
C2049       C  0.08525381  0.69496261  0.01670679     1.09310
C2050       C  0.49629889  0.62049676  0.01042363     1.09200
C2051       C  0.02471481  0.64182912  0.93207668     1.09330
C2052       C  0.04319965  0.62679988  0.58646654     1.09210
O2053       O  0.10896655  0.62242257  0.57059140    -0.80380
O2054       O  0.08601632  0.58592644  0.95880008    -0.80460
O2055       O  0.11391305  0.65658906  0.97813125    -0.80390
O2056       O  0.03366039  0.56589107  0.52036692    -0.80370
O2057       O  0.03548401  0.55957746  0.96783425    -0.80420
O2058       O  0.11528278  0.61733001  0.50826113    -0.80390
O2059       O  0.08977899  0.58405684  0.54901616    -0.80350
O2060       O  0.08434331  0.62857855  0.93408131    -0.80420
Co2061     Co  0.08449784  0.63110454  0.53529547     1.51530
Co2062     Co  0.04761780  0.59664173  0.97676149     1.51690
Co2063     Co  0.07313637  0.65872487  0.96619457     1.51570
Co2064     Co  0.05055668  0.60619824  0.53672101     1.51470
O2065       O  0.06004970  0.62982042  0.49797455    -1.42310
C2066       C  0.10827662  0.59467236  0.56853120     1.09240
C2067       C  0.09425756  0.60192737  0.93639088     1.09330
C2068       C  0.12740399  0.63533948  0.49164747     1.09270
C2069       C  0.02859720  0.55042104  0.49492512     1.09240
O2070       O  0.27767779  0.56758238  0.52291616    -0.80380
O2071       O  0.36498229  0.63536410  0.97672273    -0.80400
O2072       O  0.33338712  0.58103385  0.93754515    -0.80410
O2073       O  0.34092877  0.63337781  0.54642107    -0.80350
O2074       O  0.33699742  0.62869154  0.92645195    -0.80470
O2075       O  0.32496358  0.58913673  0.55192122    -0.80390
O2076       O  0.35705755  0.64688743  0.52453936    -0.80380
O2077       O  0.30223392  0.55096857  0.98261886    -0.80420
C2078       C  0.28499371  0.54682795  0.50449557     1.09310
C2079       C  0.37506561  0.64115453  0.50308891     1.09200
C2080       C  0.34460235  0.60148763  0.92255857     1.09330
C2081       C  0.34211056  0.60786193  0.56039549     1.09210
O2082       O  0.27283394  0.61378370  0.56435760    -0.80380
O2083       O  0.28500161  0.65784127  0.95295771    -0.80460
O2084       O  0.25601749  0.59062362  0.96982154    -0.80390
O2085       O  0.32415169  0.69153226  0.51144710    -0.80370
O2086       O  0.33621357  0.68657051  0.96126723    -0.80420
O2087       O  0.26095340  0.62593816  0.50388670    -0.80390
O2088       O  0.28877844  0.65692993  0.55016295    -0.80350
O2089       O  0.28418016  0.61838449  0.92399950    -0.80420
Co2090     Co  0.29302689  0.60711598  0.52698374     1.51530
Co2091     Co  0.32486731  0.64569444  0.96797667     1.51690
Co2092     Co  0.29530201  0.58625999  0.95530378     1.51570
Co2093     Co  0.31502664  0.64962472  0.51009616     1.51470
O2094       O  0.31413636  0.60908324  0.48982774    -1.42310
C2095       C  0.27374366  0.64119417  0.56871289     1.09240
C2096       C  0.27494025  0.64450728  0.92940054     1.09330
C2097       C  0.24556684  0.61139717  0.48607734     1.09270
C2098       C  0.33602538  0.70172166  0.98692771     1.09240
O2099       O  0.15172754  0.81454205  0.53883602    -0.80380
O2100       O  0.23000344  0.89389092  0.96697396    -0.80400
O2101       O  0.20594696  0.82791005  0.94918770    -0.80410
O2102       O  0.22430431  0.87143017  0.56847559    -0.80350
O2103       O  0.21217424  0.87686595  0.94777907    -0.80470
O2104       O  0.20300537  0.83028081  0.56508114    -0.80390
O2105       O  0.24282361  0.88133321  0.51409858    -0.80380
O2106       O  0.17491893  0.79805742  0.99760098    -0.80420
C2107       C  0.15738623  0.79408475  0.01939885     1.09310
C2108       C  0.24986255  0.88717431  0.98660426     1.09200
C2109       C  0.21765095  0.84998090  0.93725229     1.09330
C2110       C  0.22317877  0.84451497  0.57612276     1.09210
O2111       O  0.15400564  0.86110609  0.58212158    -0.80380
O2112       O  0.16220343  0.90863646  0.95757740    -0.80460
O2113       O  0.12974065  0.84036527  0.98654288    -0.80390
O2114       O  0.21734069  0.93030171  0.53820197    -0.80370
O2115       O  0.20385150  0.93727280  0.98797558    -0.80420
O2116       O  0.13684007  0.87347325  0.52261039    -0.80390
O2117       O  0.16836833  0.90186288  0.55849736    -0.80350
O2118       O  0.15776079  0.86445481  0.93851681    -0.80420
Co2119     Co  0.17029584  0.85244075  0.54319096     1.51530
Co2120     Co  0.19288847  0.89583438  0.98834530     1.51690
Co2121     Co  0.16890291  0.83372366  0.97050019     1.51570
Co2122     Co  0.20438527  0.89044875  0.53089679     1.51470
O2123       O  0.18955473  0.85554845  0.00537850    -1.42310
C2124       C  0.15388708  0.88903545  0.58018440     1.09240
C2125       C  0.15238795  0.89195488  0.93706586     1.09330
C2126       C  0.12051399  0.86133584  0.00366973     1.09270
C2127       C  0.21583096  0.94668518  0.01328534     1.09240
O2128       O  0.43929474  0.94542269  0.50634557    -0.80380
O2129       O  0.38267786  0.88278010  0.97163337    -0.80400
O2130       O  0.41630485  0.90533105  0.93374874    -0.80410
O2131       O  0.40739658  0.86699811  0.56361681    -0.80350
O2132       O  0.40578687  0.86073039  0.91973198    -0.80470
O2133       O  0.40920672  0.91487124  0.55179309    -0.80390
O2134       O  0.38049291  0.85699152  0.51390806    -0.80380
O2135       O  0.46488677  0.93014994  0.96677036    -0.80420
C2136       C  0.45716181  0.95046787  0.98550373     1.09310
C2137       C  0.36835648  0.87223162  0.49254173     1.09200
C2138       C  0.40210076  0.88838448  0.91527262     1.09330
C2139       C  0.39884144  0.89406387  0.56727038     1.09210
O2140       O  0.45982181  0.88100249  0.56776937    -0.80380
O2141       O  0.45851976  0.84495070  0.94531331    -0.80460
O2142       O  0.48570549  0.87365573  0.98516045    -0.80390
O2143       O  0.41198587  0.81030762  0.52788294    -0.80370
O2144       O  0.40758422  0.82204980  0.97603327    -0.80420
O2145       O  0.48860450  0.90776235  0.52137222    -0.80390
O2146       O  0.46091405  0.83979779  0.54087459    -0.80350
O2147       O  0.47065810  0.88606223  0.92358826    -0.80420
Co2148     Co  0.44804266  0.91141955  0.53488628     1.51530
Co2149     Co  0.42019398  0.86444808  0.96200724     1.51690
Co2150     Co  0.45122732  0.88970971  0.96208517     1.51570
Co2151     Co  0.42192078  0.84924829  0.52308320     1.51470
O2152       O  0.43248045  0.88401372  0.50252017    -1.42310
C2153       C  0.46922542  0.85459781  0.56428165     1.09240
C2154       C  0.47433865  0.85848615  0.92583543     1.09330
C2155       C  0.50000337  0.88717701  0.50504427     1.09270
C2156       C  0.40492167  0.80353724  0.49955731     1.09240
O2157       O  0.21135709  0.62466464  0.69386070    -0.80380
O2158       O  0.17498716  0.64380368  0.82413874    -0.80400
O2159       O  0.17573677  0.67469794  0.73975850    -0.80410
O2160       O  0.24396473  0.62019918  0.75868358    -0.80350
O2161       O  0.14216319  0.66366921  0.77206589    -0.80470
O2162       O  0.23986518  0.58353312  0.72680213    -0.80390
O2163       O  0.21319784  0.64850790  0.79904855    -0.80380
O2164       O  0.17558330  0.65490767  0.67764392    -0.80420
C2165       C  0.20081159  0.64418979  0.67398080     1.09310
C2166       C  0.19987563  0.65358321  0.82329214     1.09200
C2167       C  0.15446007  0.68263032  0.75626286     1.09330
C2168       C  0.25405026  0.60394640  0.73753124     1.09210
O2169       O  0.19158396  0.55494138  0.74732985    -0.80380
O2170       O  0.12970683  0.60430918  0.75475717    -0.80460
O2171       O  0.16280706  0.59919651  0.69121036    -0.80390
O2172       O  0.19605914  0.59375385  0.83012515    -0.80370
O2173       O  0.15932764  0.58320939  0.80361179    -0.80420
O2174       O  0.19954005  0.56789882  0.68411037    -0.80390
O2175       O  0.22590479  0.56448078  0.78113220    -0.80350
O2176       O  0.13134168  0.63886139  0.71921784    -0.80420
Co2177     Co  0.19787193  0.59026698  0.72209924     1.51530
Co2178     Co  0.15281719  0.62299859  0.78703714     1.51690
Co2179     Co  0.17385902  0.63596986  0.71825271     1.51570
Co2180     Co  0.21838287  0.60713122  0.79051070     1.51470
O2181       O  0.18586827  0.61474276  0.75902609    -1.42310
C2182       C  0.21278037  0.54620874  0.76450254     1.09240
C2183       C  0.11792531  0.61902172  0.73263001     1.09330
C2184       C  0.17536778  0.57849305  0.67510090     1.09270
C2185       C  0.17112833  0.58428460  0.82987649     1.09240
O2186       O  0.40966133  0.62589388  0.69031771    -0.80380
O2187       O  0.44871897  0.60163023  0.82790632    -0.80400
O2188       O  0.45305177  0.55934256  0.74408650    -0.80410
O2189       O  0.37853399  0.61642020  0.75856624    -0.80350
O2190       O  0.48150333  0.57612991  0.78122683    -0.80470
O2191       O  0.37797023  0.65641511  0.73093542    -0.80390
O2192       O  0.41284611  0.59189387  0.79985952    -0.80380
O2193       O  0.42300434  0.57866525  0.68883088    -0.80420
C2194       C  0.40893597  0.60095338  0.67653007     1.09310
C2195       C  0.42524528  0.58971472  0.82583239     1.09200
C2196       C  0.47345526  0.55514822  0.76403321     1.09330
C2197       C  0.36634398  0.63333172  0.73886088     1.09210
O2198       O  0.42487408  0.68967675  0.75134718    -0.80380
O2199       O  0.99239110  0.63267402  0.75828962    -0.80460
O2200       O  0.46140982  0.61344174  0.69513103    -0.80390
O2201       O  0.42449574  0.65021643  0.82787798    -0.80370
O2202       O  0.45991277  0.66002341  0.79996345    -0.80420
O2203       O  0.45665205  0.66125520  0.70228941    -0.80390
O2204       O  0.39091183  0.67620681  0.78188768    -0.80350
O2205       O  0.97994836  0.59910213  0.72330753    -0.80420
Co2206     Co  0.41961023  0.65673903  0.72265417     1.51530
Co2207     Co  0.46894570  0.61877618  0.78988443     1.51690
Co2208     Co  0.43516819  0.59758181  0.72765077     1.51570
Co2209     Co  0.40281521  0.63305135  0.79037138     1.51470
O2210       O  0.43486721  0.62773081  0.75955125    -1.42310
C2211       C  0.40383917  0.69656317  0.76826507     1.09240
C2212       C  0.99888151  0.61531152  0.73670465     1.09330
C2213       C  0.46632370  0.63966855  0.68616495     1.09270
C2214       C  0.44846259  0.66121093  0.82601668     1.09240
O2215       O  0.03334954  0.86146394  0.69225026    -0.80380
O2216       O  0.07303727  0.84268361  0.82726014    -0.80400
O2217       O  0.10080094  0.81748664  0.72762565    -0.80410
O2218       O  0.50599223  0.86492222  0.75835604    -0.80350
O2219       O  0.09712273  0.81360556  0.77876686    -0.80470
O2220       O  0.50689661  0.90108799  0.72482911    -0.80390
O2221       O  0.03260808  0.83872175  0.80445310    -0.80380
O2222       O  0.06814529  0.83133276  0.67788748    -0.80420
C2223       C  0.04401445  0.84355023  0.67175878     1.09310
C2224       C  0.04814780  0.83400843  0.82810500     1.09200
C2225       C  0.10455239  0.80270599  0.75286905     1.09330
C2226       C  0.49333236  0.88157966  0.73875664     1.09210
O2227       O  0.05618170  0.93147837  0.74371117    -0.80380
O2228       O  0.12384928  0.86602603  0.76093720    -0.80460
O2229       O  0.08742610  0.88186748  0.69180078    -0.80390
O2230       O  0.05507821  0.89502037  0.82757292    -0.80370
O2231       O  0.09300864  0.89729839  0.80062900    -0.80420
O2232       O  0.05179985  0.91492086  0.68106500    -0.80390
O2233       O  0.02338204  0.92270964  0.77812715    -0.80350
O2234       O  0.10461946  0.87149965  0.71286627    -0.80420
Co2235     Co  0.04956735  0.89436782  0.72071687     1.51530
Co2236     Co  0.09484614  0.85594056  0.78946149     1.51690
Co2237     Co  0.06946011  0.84849528  0.71937486     1.51570
Co2238     Co  0.03052216  0.87980171  0.79032055     1.51470
O2239       O  0.06181995  0.86937746  0.75991354    -1.42310
C2240       C  0.03656481  0.94083322  0.76176464     1.09240
C2241       C  0.12487060  0.87472126  0.73311425     1.09330
C2242       C  0.07639482  0.90397778  0.67467338     1.09270
C2243       C  0.08105887  0.90128831  0.82613970     1.09240
O2244       O  0.33136520  0.90652191  0.69415186    -0.80380
O2245       O  0.29435185  0.92479746  0.81289772    -0.80400
O2246       O  0.26734902  0.92300208  0.71435315    -0.80410
O2247       O  0.36533206  0.85665252  0.77981322    -0.80350
O2248       O  0.30103940  0.93490322  0.74780844    -0.80470
O2249       O  0.36050236  0.89039708  0.74399117    -0.80390
O2250       O  0.33268306  0.89912143  0.79994027    -0.80380
O2251       O  0.29622327  0.89225196  0.66709223    -0.80420
C2252       C  0.31957403  0.90476931  0.66783433     1.09310
C2253       C  0.32003251  0.91650567  0.81915020     1.09200
C2254       C  0.27987094  0.94243828  0.73016670     1.09330
C2255       C  0.37638183  0.87576487  0.76254630     1.09210
O2256       O  0.35308212  0.82789717  0.73093767    -0.80380
O2257       O  0.25108715  0.90744280  0.76749397    -0.80460
O2258       O  0.28241097  0.83767595  0.69829728    -0.80390
O2259       O  0.31846176  0.84608413  0.82598890    -0.80370
O2260       O  0.28083346  0.86778534  0.80308818    -0.80420
O2261       O  0.32296634  0.84441261  0.67695679    -0.80390
O2262       O  0.32084205  0.81847435  0.76613577    -0.80350
O2263       O  0.25496866  0.86698746  0.74261791    -0.80420
Co2264     Co  0.34128048  0.86800181  0.71267285     1.51530
Co2265     Co  0.29393698  0.90111681  0.77462384     1.51690
Co2266     Co  0.27594472  0.87943287  0.70714551     1.51570
Co2267     Co  0.32215164  0.85903580  0.78190038     1.51470
O2268       O  0.30793228  0.87488282  0.73905521    -1.42310
C2269       C  0.34172419  0.80983981  0.74943409     1.09240
C2270       C  0.23909147  0.88680497  0.75357071     1.09330
C2271       C  0.29910397  0.83244320  0.67634198     1.09270
C2272       C  0.29217986  0.85454786  0.82738436     1.09240
C2273       C  0.44525199  0.90449719  0.73546972    -0.12510
C2274       C  0.46263504  0.87879920  0.73673320     0.04500
C2275       C  0.45126334  0.85189996  0.74634395    -0.07800
C2276       C  0.42383210  0.85233758  0.75790567    -0.08540
C2277       C  0.40682745  0.87831695  0.75822592    -0.03090
C2278       C  0.41738388  0.90467736  0.74580360     0.03730
N2279       N  0.40034142  0.93186913  0.74365663     0.66230
H2280       H  0.45399393  0.92502796  0.72861602     0.15130
H2281       H  0.41508269  0.83188233  0.76499847     0.14840
N2282       N  0.46751236  0.82412394  0.74529975     0.73940
O2283       O  0.40414692  0.95006160  0.72179302    -0.39510
O2284       O  0.38319499  0.93900357  0.76494927    -0.39460
O2285       O  0.48630584  0.81963734  0.72501380    -0.40160
O2286       O  0.46154811  0.80306733  0.76298402    -0.40230
C2287       C  0.19019256  0.91130569  0.75072542    -0.12510
C2288       C  0.20869533  0.88699034  0.74460060     0.04500
C2289       C  0.19857189  0.86358427  0.72630734    -0.07800
C2290       C  0.17105208  0.86537935  0.71408731    -0.08540
C2291       C  0.15165188  0.88661040  0.72491550    -0.03090
C2292       C  0.16131788  0.91100668  0.74185864     0.03730
N2293       N  0.14180803  0.93458295  0.75137622     0.66230
H2294       H  0.19797640  0.92984820  0.76345377     0.15130
H2295       H  0.16348194  0.84700616  0.70083899     0.14840
N2296       N  0.21495893  0.83653528  0.72200085     0.73940
O2297       O  0.14937683  0.95337972  0.77111398    -0.39510
O2298       O  0.11747111  0.93786312  0.73866187    -0.39460
O2299       O  0.22379360  0.82146666  0.74568484    -0.40160
O2300       O  0.21533073  0.82489874  0.69519803    -0.40230
C2301       C  0.49271122  0.51005299  0.73636697    -0.12510
C2302       C  0.49043518  0.52601414  0.76453889     0.04500
C2303       C  0.00676269  0.51513934  0.79107430    -0.07800
C2304       C  0.02328302  0.48828812  0.78914661    -0.08540
C2305       C  0.02515625  0.97229224  0.76101581    -0.03090
C2306       C  0.01010531  0.48400399  0.73423042     0.03730
N2307       N  0.51223631  0.96975211  0.70445664     0.66230
H2308       H  0.48152221  0.51835340  0.71532497     0.15130
H2309       H  0.03400178  0.47928051  0.81016270     0.14840
N2310       N  0.00574499  0.53008773  0.82063194     0.73940
O2311       O  0.49007769  0.96238067  0.69021859    -0.39510
O2312       O  0.03465161  0.97161120  0.68924800    -0.39460
O2313       O  0.48216210  0.53802221  0.83196960    -0.40160
O2314       O  0.02790901  0.53140937  0.83752814    -0.40230
C2315       C  0.38273197  0.77447226  0.73979944    -0.12510
C2316       C  0.35654459  0.78010689  0.75442930     0.04500
C2317       C  0.34781807  0.75910141  0.77640693    -0.07800
C2318       C  0.36529506  0.73360908  0.78306231    -0.08540
C2319       C  0.39074167  0.72735670  0.76718402    -0.03090
C2320       C  0.39995416  0.74890518  0.74609600     0.03730
N2321       N  0.42680946  0.74559918  0.73103798     0.66230
H2322       H  0.39057567  0.79057101  0.72378403     0.15130
H2323       H  0.35792557  0.71762581  0.79951846     0.14840
N2324       N  0.32089544  0.76244930  0.79122887     0.73940
O2325       O  0.42878700  0.75260176  0.70239347    -0.39510
O2326       O  0.44914309  0.74063053  0.74746209    -0.39460
O2327       O  0.29857571  0.76615137  0.77451517    -0.40160
O2328       O  0.31893920  0.75632053  0.82009604    -0.40230
C2329       C  0.22119652  0.00274055  0.73036652    -0.12510
C2330       C  0.22743205  0.01713068  0.75864149     0.04500
C2331       C  0.25224345  0.00779371  0.77603658    -0.07800
C2332       C  0.27062026  0.98571205  0.76399135    -0.08540
C2333       C  0.26442980  0.97120783  0.73575312    -0.03090
C2334       C  0.23943640  0.98027916  0.71849651     0.03730
N2335       N  0.23254309  0.96764432  0.68856165     0.66230
H2336       H  0.20283369  0.01023233  0.71622793     0.15130
H2337       H  0.28908537  0.97856955  0.77813501     0.14840
N2338       N  0.25893660  0.52004314  0.80624022     0.73940
O2339       O  0.20698755  0.96553115  0.68020665    -0.39510
O2340       O  0.25157669  0.96274866  0.66861049    -0.39460
O2341       O  0.23997972  0.52364621  0.82652589    -0.40160
O2342       O  0.28432853  0.52396406  0.81406663    -0.40230
C2343       C  0.15488516  0.73554105  0.73924270    -0.12510
C2344       C  0.14142427  0.71341227  0.75532506     0.04500
C2345       C  0.11518756  0.72122569  0.77001883    -0.07800
C2346       C  0.10389929  0.75033628  0.76866865    -0.08540
C2347       C  0.11744411  0.77219049  0.75270003    -0.03090
C2348       C  0.14335936  0.76473489  0.73826508     0.03730
N2349       N  0.15987084  0.78725085  0.72619140     0.66230
H2350       H  0.17508335  0.73044165  0.72846477     0.15130
H2351       H  0.08394786  0.75586047  0.77986821     0.14840
N2352       N  0.09910320  0.70016522  0.78598589     0.73940
O2353       O  0.16561106  0.80826477  0.74396071    -0.39510
O2354       O  0.17316009  0.78330132  0.70100785    -0.39460
O2355       O  0.09041619  0.70581152  0.81329587    -0.40160
O2356       O  0.08756164  0.68050155  0.77028620    -0.40230
C2357       C  0.28805654  0.64027385  0.72570688    -0.12510
C2358       C  0.28189377  0.61044536  0.72593933     0.04500
C2359       C  0.30390589  0.58856142  0.72301439    -0.07800
C2360       C  0.33185563  0.59708243  0.72440189    -0.08540
C2361       C  0.33785882  0.62677363  0.72821135    -0.03090
C2362       C  0.31576646  0.64870065  0.72692265     0.03730
N2363       N  0.32067796  0.67906021  0.73190573     0.66230
H2364       H  0.27112672  0.65718533  0.72784197     0.15130
H2365       H  0.34905190  0.58031162  0.72441302     0.14840
N2366       N  0.29851209  0.55784114  0.72168361     0.73940
O2367       O  0.30926540  0.69833851  0.71348374    -0.39510
O2368       O  0.33012477  0.68685520  0.75834578    -0.39460
O2369       O  0.28048477  0.54893919  0.70216008    -0.40160
O2370       O  0.31474647  0.53915399  0.73623046    -0.40230
C2371       C  0.07109398  0.63974178  0.71558476    -0.12510
C2372       C  0.08776962  0.61499485  0.72564990     0.04500
C2373       C  0.07439362  0.58887130  0.73380644    -0.07800
C2374       C  0.04489719  0.58891151  0.73315311    -0.08540
C2375       C  0.02846477  0.61482046  0.72723782    -0.03090
C2376       C  0.04169944  0.64070621  0.71806413     0.03730
N2377       N  0.02614119  0.66825884  0.71162680     0.66230
H2378       H  0.08107888  0.65971552  0.70920570     0.15130
H2379       H  0.03483177  0.56928455  0.74058300     0.14840
N2380       N  0.08987571  0.56266490  0.74483837     0.73940
O2381       O  0.03333711  0.68417552  0.68904441    -0.39510
O2382       O  0.00978684  0.67955627  0.73182598    -0.39460
O2383       O  0.09927607  0.56162109  0.77287484    -0.40160
O2384       O  0.08558386  0.53868952  0.73129699    -0.40230
C2385       C  0.04385568  0.84428070  0.88409514    -0.12510
C2386       C  0.03462807  0.82800929  0.85850208     0.04500
C2387       C  0.50797838  0.81532721  0.85994287    -0.07800
C2388       C  0.48984046  0.82302949  0.88490072    -0.08540
C2389       C  0.49727958  0.84379221  0.90744651    -0.03090
C2390       C  0.02526706  0.85396423  0.90750331     0.03730
N2391       N  0.03532230  0.87529289  0.92942825     0.66230
H2392       H  0.06438742  0.85361596  0.88330559     0.15130
H2393       H  0.46878867  0.81485740  0.88515135     0.14840
N2394       N  0.49854430  0.79604102  0.83556623     0.73940
O2395       O  0.06137904  0.87459510  0.93656941    -0.39510
O2396       O  0.52074206  0.89864609  0.93486856    -0.39460
O2397       O  0.51625651  0.78155051  0.81914039    -0.40160
O2398       O  0.47261201  0.79138559  0.83218429    -0.40230
C2399       C  0.01798589  0.84097418  0.58539073    -0.12510
C2400       C  0.48861890  0.84164451  0.58950414     0.04500
C2401       C  0.47848428  0.83743896  0.62010931    -0.07800
C2402       C  0.49766779  0.83631778  0.64590405    -0.08540
C2403       C  0.02702520  0.83790352  0.64238338    -0.03090
C2404       C  0.03762728  0.83874226  0.61113894     0.03730
N2405       N  0.06744356  0.83945500  0.60444769     0.66230
H2406       H  0.02564596  0.84464371  0.56205219     0.15130
H2407       H  0.48940624  0.83512813  0.66931529     0.14840
N2408       N  0.44873585  0.83503397  0.62545249     0.73940
O2409       O  0.07592247  0.83443075  0.57692089    -0.39510
O2410       O  0.08523022  0.84721752  0.62479431    -0.39460
O2411       O  0.43321714  0.82374699  0.60480748    -0.40160
O2412       O  0.43874763  0.84012459  0.65231781    -0.40230
C2413       C  0.32975025  0.90168170  0.87316772    -0.12510
C2414       C  0.33544501  0.92162024  0.84942223     0.04500
C2415       C  0.36226957  0.93414403  0.85021687    -0.07800
C2416       C  0.38319766  0.92400116  0.87291249    -0.08540
C2417       C  0.37872953  0.90031688  0.89332649    -0.03090
C2418       C  0.35124851  0.88903538  0.89312031     0.03730
N2419       N  0.34465418  0.86362228  0.91117165     0.66230
H2420       H  0.30927076  0.89237843  0.87299775     0.15130
H2421       H  0.40365161  0.93352498  0.87355099     0.14840
N2422       N  0.36848684  0.95699230  0.82822954     0.73940
O2423       O  0.32015565  0.86261001  0.92200834    -0.39510
O2424       O  0.35857933  0.83957223  0.90707639    -0.39460
O2425       O  0.34880523  0.97063358  0.81262774    -0.40160
O2426       O  0.39338350  0.96530656  0.82610431    -0.40230
C2427       C  0.34882384  0.90341191  0.58422332    -0.12510
C2428       C  0.37800306  0.90178608  0.59169319     0.04500
C2429       C  0.38708983  0.90745511  0.62269548    -0.07800
C2430       C  0.36690581  0.91071060  0.64610472    -0.08540
C2431       C  0.33757186  0.90922158  0.63972422    -0.03090
C2432       C  0.32824046  0.90816288  0.60775011     0.03730
N2433       N  0.29880563  0.91345994  0.59858568     0.66230
H2434       H  0.34220948  0.90109417  0.55984034     0.15130
H2435       H  0.37461635  0.91349959  0.67002055     0.14840
N2436       N  0.41662014  0.90947023  0.63106716     0.73940
O2437       O  0.28123285  0.92398566  0.61796487    -0.39510
O2438       O  0.29132954  0.91304202  0.56987764    -0.39460
O2439       O  0.42542765  0.90337732  0.65874965    -0.40160
O2440       O  0.43302684  0.92147010  0.61251703    -0.40230
C2441       C  0.23244802  0.86830779  0.88632100    -0.12510
C2442       C  0.23742992  0.84682056  0.90968002     0.04500
C2443       C  0.26124368  0.82614964  0.90584635    -0.07800
C2444       C  0.27895497  0.82897337  0.87904098    -0.08540
C2445       C  0.27344226  0.85088568  0.85572957    -0.03090
C2446       C  0.24929396  0.87039018  0.85996921     0.03730
N2447       N  0.24110550  0.89332386  0.83802205     0.66230
H2448       H  0.21480416  0.88436294  0.88847225     0.15130
H2449       H  0.29722088  0.81389635  0.87621227     0.14840
N2450       N  0.26870099  0.80294013  0.92845773     0.73940
O2451       O  0.22024477  0.88953100  0.81982726    -0.39510
O2452       O  0.24675901  0.91930432  0.84484845    -0.39460
O2453       O  0.25320931  0.79789731  0.95138819    -0.40160
O2454       O  0.29080118  0.78650364  0.92502393    -0.40230
C2455       C  0.29404768  0.83369765  0.61838466    -0.12510
C2456       C  0.28648390  0.82093592  0.64675823     0.04500
C2457       C  0.26070006  0.80629589  0.64719623    -0.07800
C2458       C  0.23973445  0.81315206  0.62348027    -0.08540
C2459       C  0.24587017  0.83072492  0.59754813    -0.03090
C2460       C  0.27437978  0.83698511  0.59322166     0.03730
N2461       N  0.28381914  0.84360087  0.56246527     0.66230
H2462       H  0.31475283  0.84241193  0.61631936     0.15130
H2463       H  0.21862116  0.80547925  0.62562529     0.14840
N2464       N  0.25577847  0.78472795  0.67122817     0.73940
O2465       O  0.30688955  0.85564563  0.55899350    -0.39510
O2466       O  0.27324753  0.83024013  0.53956455    -0.39460
O2467       O  0.23377962  0.77028840  0.66989161    -0.40160
O2468       O  0.27510388  0.77682869  0.69097124    -0.40230
C2469       C  0.14542753  0.89039560  0.88058153    -0.12510
C2470       C  0.13648648  0.90318197  0.90853728     0.04500
C2471       C  0.10993310  0.91931510  0.90868073    -0.07800
C2472       C  0.09156347  0.91869336  0.88181162    -0.08540
C2473       C  0.10010403  0.90381499  0.85440609    -0.03090
C2474       C  0.12795999  0.89029102  0.85403277     0.03730
N2475       N  0.13834544  0.87348746  0.82800423     0.66230
H2476       H  0.16563462  0.87796861  0.87999234     0.15130
H2477       H  0.07088517  0.93014250  0.88212310     0.14840
N2478       N  0.10186027  0.93708467  0.93505475     0.73940
O2479       O  0.15784941  0.88341121  0.81197710    -0.39510
O2480       O  0.13480859  0.84622274  0.82754504    -0.39460
O2481       O  0.11927560  0.95429151  0.94657496    -0.40160
O2482       O  0.07613487  0.94053258  0.94214344    -0.40230
C2483       C  0.12305458  0.91752014  0.65521010    -0.12510
C2484       C  0.09394887  0.91498114  0.64877133     0.04500
C2485       C  0.08484347  0.91315776  0.61702373    -0.07800
C2486       C  0.10525952  0.90703481  0.59388650    -0.08540
C2487       C  0.13441859  0.90596369  0.60110790    -0.03090
C2488       C  0.14343813  0.91351451  0.63164046     0.03730
N2489       N  0.17314457  0.91474092  0.63942596     0.66230
H2490       H  0.13000045  0.92086701  0.67918827     0.15130
H2491       H  0.09836782  0.90087719  0.57065548     0.14840
N2492       N  0.05521817  0.91501443  0.60840862     0.73940
O2493       O  0.18207364  0.91085913  0.66740205    -0.39510
O2494       O  0.19040062  0.92167314  0.61877294    -0.39300
O2495       O  0.03843003  0.93271082  0.62247568    -0.40160
O2496       O  0.04661233  0.90301652  0.58357547    -0.40230
C2497       C  0.32547269  0.90323229  0.98060735    -0.12510
C2498       C  0.33764231  0.87578913  0.49009361     0.04500
C2499       C  0.32086002  0.85114180  0.49060853    -0.07800
C2500       C  0.29207113  0.85502271  0.48334486    -0.08540
C2501       C  0.27941257  0.88296984  0.97795692    -0.03090
C2502       C  0.29639742  0.90703634  0.97401644     0.03730
N2503       N  0.28486094  0.93476452  0.96203674     0.66230
H2504       H  0.33887498  0.92153767  0.97767090     0.15130
H2505       H  0.27900350  0.83634833  0.48417026     0.14840
N2506       N  0.33237047  0.82217321  0.49848158     0.73940
O2507       O  0.29845929  0.95753956  0.96606135    -0.39510
O2508       O  0.26491026  0.93540948  0.94179613    -0.39460
O2509       O  0.34309327  0.81724373  0.52557962    -0.40160
O2510       O  0.32518958  0.80066254  0.48214573    -0.40230
C2511       C  0.07179723  0.84669656  0.99871897    -0.12510
C2512       C  0.08995080  0.86951292  0.00377659     0.04500
C2513       C  0.07832068  0.89825854  0.51051401    -0.07800
C2514       C  0.04880713  0.90266187  0.51262999    -0.08540
C2515       C  0.03073573  0.87981778  0.50719507    -0.03090
C2516       C  0.04250599  0.85143234  0.99973627     0.03730
N2517       N  0.02536574  0.82724101  0.99229061     0.66230
H2518       H  0.08048402  0.82465057  0.99399924     0.15130
H2519       H  0.03967319  0.92457627  0.51702438     0.14840
N2520       N  0.09544950  0.92332197  0.51456069     0.73940
O2521       O  0.03225401  0.81006212  0.97018011    -0.39510
O2522       O  0.50663462  0.81990337  0.51092827    -0.39460
O2523       O  0.11925916  0.92420848  0.00202680    -0.40160
O2524       O  0.08560033  0.94605440  0.52832707    -0.40230
C2525       C  0.26528497  0.66191183  0.87482971    -0.12510
C2526       C  0.25499270  0.65904485  0.90518647     0.04500
C2527       C  0.22528765  0.66345906  0.90899147    -0.07800
C2528       C  0.20676464  0.66282822  0.88212951    -0.08540
C2529       C  0.21730070  0.66284437  0.85148560    -0.03090
C2530       C  0.24700942  0.66611027  0.84845480     0.03730
N2531       N  0.25917396  0.67267720  0.81865972     0.66230
H2532       H  0.28796930  0.66048491  0.87158654     0.15130
H2533       H  0.18412894  0.66242725  0.88508147     0.14840
N2534       N  0.21384527  0.67085108  0.93908531     0.73940
O2535       O  0.24799422  0.69309533  0.80148521    -0.39510
O2536       O  0.28307129  0.66118296  0.81155484    -0.39460
O2537       O  0.22927631  0.68231730  0.95969900    -0.40160
O2538       O  0.18736609  0.67268490  0.94234787    -0.40230
C2539       C  0.22801854  0.66169692  0.59161450    -0.12510
C2540       C  0.25712710  0.65367479  0.59565047     0.04500
C2541       C  0.26755520  0.64818932  0.62648036    -0.07800
C2542       C  0.24879431  0.64703936  0.65153641    -0.08540
C2543       C  0.21939191  0.65241261  0.64737589    -0.03090
C2544       C  0.20919414  0.66154620  0.61715111     0.03730
N2545       N  0.17976150  0.66897943  0.61147443     0.66230
H2546       H  0.21945300  0.66606551  0.56826522     0.15130
H2547       H  0.25727345  0.64099098  0.67446882     0.14840
N2548       N  0.29730766  0.64325813  0.63242977     0.73940
O2549       O  0.17190074  0.69428555  0.60124697    -0.39510
O2550       O  0.16169047  0.64998818  0.61523089    -0.39460
O2551       O  0.31401195  0.66079893  0.62084037    -0.40160
O2552       O  0.30658421  0.62422825  0.65239026    -0.40230
C2553       C  0.39479038  0.59348825  0.90759763    -0.12510
C2554       C  0.36592465  0.59317709  0.89924683     0.04500
C2555       C  0.35776297  0.58482777  0.86872554    -0.07800
C2556       C  0.37869844  0.57930293  0.84657519    -0.08540
C2557       C  0.40756185  0.58336465  0.85341486    -0.03090
C2558       C  0.41595775  0.58840506  0.88505554     0.03730
N2559       N  0.44535400  0.58804496  0.89468421     0.66230
H2560       H  0.40073606  0.59804619  0.93177071     0.15130
H2561       H  0.37188598  0.57396220  0.82288270     0.14840
N2562       N  0.32843269  0.58373201  0.85912399     0.73940
O2563       O  0.45265354  0.60006429  0.92004244    -0.39510
O2564       O  0.46335269  0.57139986  0.88107058    -0.39460
O2565       O  0.32062453  0.59079826  0.83134222    -0.40160
O2566       O  0.31067490  0.57343038  0.87731382    -0.40230
C2567       C  0.36789929  0.62855172  0.60366536    -0.12510
C2568       C  0.36224430  0.60305333  0.58746801     0.04500
C2569       C  0.37366224  0.57559066  0.59949057    -0.07800
C2570       C  0.38920267  0.57492561  0.62858667    -0.08540
C2571       C  0.39264277  0.60084069  0.64595498    -0.03090
C2572       C  0.38089658  0.62788080  0.63298552     0.03730
N2573       N  0.37901637  0.65492623  0.65007805     0.66230
H2574       H  0.35993669  0.64982816  0.59471125     0.15130
H2575       H  0.39852034  0.55423023  0.63769057     0.14840
N2576       N  0.37105784  0.54881910  0.58210798     0.73940
O2577       O  0.38794186  0.67776635  0.63764137    -0.39510
O2578       O  0.36024588  0.65805056  0.67054351    -0.39460
O2579       O  0.37066443  0.54926400  0.55238262    -0.40160
O2580       O  0.37296992  0.52426884  0.59622631    -0.40230
C2581       C  0.26039198  0.01060895  0.53596011    -0.12510
C2582       C  0.26936611  0.51966441  0.50625593     0.04500
C2583       C  0.25758862  0.50696827  0.97894693    -0.07800
C2584       C  0.23808744  0.98514757  0.98229065    -0.08540
C2585       C  0.23095061  0.97439681  0.01198916    -0.03090
C2586       C  0.24145097  0.98825108  0.53910104     0.03730
N2587       N  0.23147659  0.98165176  0.56974237     0.66230
H2588       H  0.26775053  0.02143779  0.55700963     0.15130
H2589       H  0.22944195  0.47555493  0.96118246     0.14840
N2590       N  0.26460702  0.51599135  0.94766330     0.73940
O2591       O  0.24220675  0.95968973  0.58482814    -0.39510
O2592       O  0.21664042  0.00092576  0.58412678    -0.39460
O2593       O  0.29004907  0.51428573  0.93927716    -0.40160
O2594       O  0.24538894  0.51883974  0.92661274    -0.40230
C2595       C  0.36272467  0.74217605  0.96266514    -0.12510
C2596       C  0.35265066  0.72861920  0.48976937     0.04500
C2597       C  0.36216070  0.73845111  0.51954341    -0.07800
C2598       C  0.38034737  0.76150545  0.52155027    -0.08540
C2599       C  0.38997035  0.77568483  0.49465386    -0.03090
C2600       C  0.38167225  0.76507211  0.96463615     0.03730
N2601       N  0.39292678  0.77623428  0.93607374     0.66230
H2602       H  0.35666917  0.73411709  0.93969587     0.15130
H2603       H  0.38650515  0.76869879  0.54484642     0.14840
N2604       N  0.35461300  0.72464837  0.54829409     0.73940
O2605       O  0.41910655  0.77977014  0.93435306    -0.39510
O2606       O  0.37798993  0.77719366  0.41105533    -0.39460
O2607       O  0.36753563  0.70083357  0.05687708    -0.40160
O2608       O  0.34028093  0.73927971  0.56809202    -0.40230
C2609       C  0.48340141  0.67097476  0.90715809    -0.12510
C2610       C  0.00552403  0.64899839  0.90505553     0.04500
C2611       C  0.00963087  0.63422193  0.87641656    -0.07800
C2612       C  0.99160232  0.64105090  0.85117880    -0.08540
C2613       C  0.46792034  0.66080521  0.85362094    -0.03090
C2614       C  0.46397217  0.67692528  0.88171746     0.03730
N2615       N  0.44151366  0.69954070  0.88464081     0.66230
H2616       H  0.48096152  0.68296299  0.92895120     0.15130
H2617       H  0.99565008  0.62922323  0.82959663     0.14840
N2618       N  0.03211767  0.61225871  0.87202075     0.73940
O2619       O  0.43844353  0.71327437  0.91018354    -0.39510
O2620       O  0.42561590  0.70719144  0.86142657    -0.39460
O2621       O  0.02978555  0.58674047  0.88311159    -0.40160
O2622       O  0.04885117  0.61545622  0.84969694    -0.40230
C2623       C  0.50904553  0.66101470  0.61428971    -0.12510
C2624       C  0.02911256  0.63701202  0.61493385     0.04500
C2625       C  0.03002600  0.61730470  0.64006300    -0.07800
C2626       C  0.00743336  0.61748682  0.65979893    -0.08540
C2627       C  0.48757318  0.64159739  0.66113912    -0.03090
C2628       C  0.48854594  0.66425578  0.63802365     0.03730
N2629       N  0.46784537  0.68865641  0.63613998     0.66230
H2630       H  0.50815622  0.67596229  0.59430234     0.15130
H2631       H  0.00644923  0.59868557  0.67512378     0.14840
N2632       N  0.05391443  0.59690369  0.64540915     0.73940
O2633       O  0.47295672  0.71158978  0.62090247    -0.39510
O2634       O  0.44334203  0.68634430  0.64651911    -0.39460
O2635       O  0.07851609  0.60582040  0.64276814    -0.40160
O2636       O  0.05084248  0.57214913  0.65803863    -0.40230
C2637       C  0.15466267  0.56632190  0.88390161    -0.12510
C2638       C  0.15198808  0.58596547  0.85799014     0.04500
C2639       C  0.12828779  0.60638129  0.85747387    -0.07800
C2640       C  0.11076793  0.60926724  0.88305189    -0.08540
C2641       C  0.11373037  0.59148029  0.91007528    -0.03090
C2642       C  0.13519385  0.56774565  0.90948606     0.03730
N2643       N  0.13803987  0.54498829  0.93344554     0.66230
H2644       H  0.17163564  0.54935580  0.88382604     0.15130
H2645       H  0.09389218  0.62629148  0.88105546     0.14840
N2646       N  0.12049794  0.62454451  0.83080963     0.73940
O2647       O  0.15201301  0.52117039  0.92801568    -0.39510
O2648       O  0.12745943  0.54837889  0.96022331    -0.39460
O2649       O  0.10444233  0.61426335  0.81007306    -0.40160
O2650       O  0.11979102  0.65208947  0.83425074    -0.40230
C2651       C  0.17376467  0.57877514  0.61718629    -0.12510
C2652       C  0.16174666  0.56947138  0.64509354     0.04500
C2653       C  0.13434508  0.55836697  0.64355334    -0.07800
C2654       C  0.11800908  0.56209028  0.61526864    -0.08540
C2655       C  0.12852171  0.57631874  0.58895384    -0.03090
C2656       C  0.15765526  0.58163406  0.58897280     0.03730
N2657       N  0.17084973  0.59030907  0.56056188     0.66230
H2658       H  0.19524394  0.58585922  0.61792693     0.15130
H2659       H  0.09607700  0.55650245  0.61473057     0.14840
N2660       N  0.12273354  0.54379518  0.67019858     0.73940
O2661       O  0.19392886  0.60290086  0.56177679    -0.39510
O2662       O  0.16244401  0.58031658  0.53458006    -0.39460
O2663       O  0.13745831  0.53863946  0.69496795    -0.40160
O2664       O  0.09924368  0.53215061  0.66739684    -0.40230
C2665       C  0.01080015  0.00700991  0.96720882    -0.12510
C2666       C  0.01205040  0.52319276  0.49538730     0.04500
C2667       C  0.49397201  0.51561382  0.52002838    -0.07800
C2668       C  0.47477179  0.49334449  0.51518190    -0.08540
C2669       C  0.47330812  0.97773911  0.48672027    -0.03090
C2670       C  0.49158623  0.98506964  0.96232994     0.03730
N2671       N  0.49053451  0.97113524  0.93207363     0.66230
H2672       H  0.02418961  0.01227967  0.94785109     0.15130
H2673       H  0.46177156  0.48721296  0.53456381     0.14840
N2674       N  0.49488573  0.52953618  0.55022679     0.73940
O2675       O  0.01305369  0.96547625  0.91735067    -0.39510
O2676       O  0.46703115  0.96842269  0.41807664    -0.39460
O2677       O  0.47224112  0.53432217  0.06498345    -0.40160
O2678       O  0.51818674  0.53048108  0.56510234    -0.40230
C2679       C  0.45247544  0.63929754  0.98350839    -0.12510
C2680       C  0.46554454  0.62838744  0.01132279     0.04500
C2681       C  0.44886961  0.62517724  0.53853497    -0.07800
C2682       C  0.41932832  0.63121678  0.53607324    -0.08540
C2683       C  0.40626847  0.64049129  0.00755541    -0.03090
C2684       C  0.42339859  0.64628221  0.98159589     0.03730
N2685       N  0.41167219  0.66034701  0.95352500     0.66230
H2686       H  0.46520412  0.64308969  0.96320291     0.15130
H2687       H  0.40638618  0.62711842  0.55603626     0.14840
N2688       N  0.46087062  0.61449951  0.56819648     0.73940
O2689       O  0.39598076  0.68352530  0.95558796    -0.39510
O2690       O  0.42029177  0.65247774  0.92684309    -0.39460
O2691       O  0.48059497  0.59468834  0.56906761    -0.40160
O2692       O  0.44910220  0.62180361  0.59358928    -0.40230
C2693       C  0.16759229  0.60839432  0.97011308    -0.12510
C2694       C  0.15745131  0.63150622  0.48860746     0.04500
C2695       C  0.17604751  0.64821750  0.50621829    -0.07800
C2696       C  0.20487312  0.64175748  0.50392164    -0.08540
C2697       C  0.21523049  0.61818269  0.48560584    -0.03090
C2698       C  0.19626807  0.60113187  0.96875468     0.03730
N2699       N  0.20538547  0.57527849  0.95212007     0.66230
H2700       H  0.15306433  0.59522338  0.95800780     0.15130
H2701       H  0.21924447  0.65491067  0.51702533     0.14840
N2702       N  0.16622155  0.67004940  0.52813997     0.73940
O2703       O  0.21204939  0.57721268  0.42362299    -0.39510
O2704       O  0.20228007  0.55032864  0.96425751    -0.39460
O2705       O  0.14885015  0.66330435  0.54863587    -0.40160
O2706       O  0.17965148  0.69296411  0.03198762    -0.40230
C2707       C  0.11543535  0.76834174  0.53845762    -0.12510
C2708       C  0.13985388  0.76777213  0.01971483     0.04500
C2709       C  0.14432660  0.74421491  0.99867816    -0.07800
C2710       C  0.12477477  0.72229928  0.99699605    -0.08540
C2711       C  0.10126528  0.72205588  0.01667142    -0.03090
C2712       C  0.09607395  0.74582005  0.53732576     0.03730
N2713       N  0.07116500  0.74814203  0.55635624     0.66230
H2714       H  0.11115787  0.78671120  0.55402110     0.15130
H2715       H  0.12890048  0.70466413  0.98068159     0.14840
N2716       N  0.16885699  0.74157149  0.97936298     0.73940
O2717       O  0.06176625  0.77297762  0.56579974    -0.39510
O2718       O  0.05817104  0.72570228  0.06363713    -0.39460
O2719       O  0.19330305  0.74195111  0.49180820    -0.40160
O2720       O  0.16633067  0.73430694  0.95085876    -0.40230
O2721       O  0.59553815  0.17315106  0.03303312    -0.80380
O2722       O  0.50668824  0.10741541  0.48689036    -0.80400
O2723       O  0.53357759  0.16222593  0.44940867    -0.80410
O2724       O  0.54218786  0.09966679  0.07923210    -0.80350
O2725       O  0.53352296  0.11507113  0.43641095    -0.80470
O2726       O  0.55438634  0.14466914  0.06723450    -0.80390
O2727       O  0.51237872  0.12634103  0.03285857    -0.80380
O2728       O  0.56599782  0.19150463  0.49594503    -0.80420
C2729       C  0.58525382  0.19496262  0.51670675     1.09310
C2730       C  0.99629893  0.12049680  0.51042349     1.09200
C2731       C  0.52471497  0.14182902  0.43207660     1.09330
C2732       C  0.54319970  0.12679982  0.08646653     1.09210
O2733       O  0.60896659  0.12242253  0.07059134    -0.80380
O2734       O  0.58601643  0.08592638  0.45880019    -0.80460
O2735       O  0.61391315  0.15658903  0.47813136    -0.80390
O2736       O  0.53366040  0.06589104  0.02036689    -0.80370
O2737       O  0.53548411  0.05957744  0.46783429    -0.80420
O2738       O  0.61528279  0.11732998  0.00826106    -0.80390
O2739       O  0.58977902  0.08405680  0.04901611    -0.80350
O2740       O  0.58434355  0.12857846  0.43408135    -0.80420
Co2741     Co  0.58449786  0.13110451  0.03529543     1.51530
Co2742     Co  0.54761789  0.09664171  0.47676150     1.51690
Co2743     Co  0.57313651  0.15872482  0.46619455     1.51570
Co2744     Co  0.55055670  0.10619820  0.03672099     1.51470
O2745       O  0.56004970  0.12982040  0.99797453    -1.42310
C2746       C  0.60827666  0.09467232  0.06853114     1.09240
C2747       C  0.59425771  0.10192725  0.43639096     1.09330
C2748       C  0.62740398  0.13533946  0.99164740     1.09270
C2749       C  0.52859719  0.05042103  0.99492509     1.09240
O2750       O  0.77767776  0.06758237  0.02291617    -0.80380
O2751       O  0.86498228  0.13536412  0.47672260    -0.80400
O2752       O  0.83338708  0.08103386  0.43754508    -0.80410
O2753       O  0.84092874  0.13337779  0.04642110    -0.80350
O2754       O  0.83699735  0.12869155  0.42645186    -0.80470
O2755       O  0.82496353  0.08913672  0.05192125    -0.80390
O2756       O  0.85705754  0.14688741  0.02453942    -0.80380
O2757       O  0.80223397  0.05096857  0.48261885    -0.80420
C2758       C  0.78499370  0.04682793  0.00449560     1.09310
C2759       C  0.87506560  0.14115450  0.00308898     1.09200
C2760       C  0.84460229  0.10148764  0.42255848     1.09330
C2761       C  0.84211052  0.10786191  0.06039552     1.09210
O2762       O  0.77283388  0.11378370  0.06435759    -0.80380
O2763       O  0.78500158  0.15784127  0.45295769    -0.80460
O2764       O  0.75601752  0.09062360  0.46982161    -0.80390
O2765       O  0.82415167  0.19153224  0.01144711    -0.80370
O2766       O  0.83621355  0.18657052  0.46126713    -0.80420
O2767       O  0.76095339  0.12593815  0.00388667    -0.80390
O2768       O  0.78877841  0.15692992  0.05016296    -0.80350
O2769       O  0.78418010  0.11838447  0.42399950    -0.80420
Co2770     Co  0.79302685  0.10711597  0.02698375     1.51530
Co2771     Co  0.82486730  0.14569445  0.46797660     1.51690
Co2772     Co  0.79530200  0.08625998  0.45530377     1.51570
Co2773     Co  0.81502662  0.14962470  0.01009618     1.51470
O2774       O  0.81413636  0.10908322  0.98982777    -1.42310
C2775       C  0.77374361  0.14119417  0.06871289     1.09240
C2776       C  0.77494019  0.14450727  0.42940054     1.09330
C2777       C  0.74556683  0.11139715  0.98607731     1.09270
C2778       C  0.83602538  0.20172167  0.48692763     1.09240
O2779       O  0.65172756  0.31454201  0.03883602    -0.80380
O2780       O  0.73000344  0.39389092  0.46697392    -0.80400
O2781       O  0.70594696  0.32791007  0.44918766    -0.80410
O2782       O  0.72430433  0.37143015  0.06847555    -0.80350
O2783       O  0.71217425  0.37686596  0.44777902    -0.80470
O2784       O  0.70300540  0.33028078  0.06508111    -0.80390
O2785       O  0.74282361  0.38133318  0.01409853    -0.80380
O2786       O  0.67491892  0.29805744  0.49760092    -0.80420
C2787       C  0.65738622  0.29408478  0.51939879     1.09310
C2788       C  0.74986254  0.38717432  0.48660423     1.09200
C2789       C  0.71765096  0.34998092  0.43725224     1.09330
C2790       C  0.72317880  0.34451495  0.07612272     1.09210
O2791       O  0.65400567  0.36110606  0.08212157    -0.80380
O2792       O  0.66220345  0.40863648  0.45757732    -0.80460
O2793       O  0.62974064  0.34036529  0.48654280    -0.80390
O2794       O  0.71734069  0.43030168  0.03820193    -0.80370
O2795       O  0.70385151  0.43727282  0.48797552    -0.80420
O2796       O  0.63684007  0.37347320  0.02261039    -0.80390
O2797       O  0.66836835  0.40186285  0.05849733    -0.80350
O2798       O  0.65776080  0.36445483  0.43851675    -0.80420
Co2799     Co  0.67029585  0.35244071  0.04319094     1.51530
Co2800     Co  0.69288847  0.39583440  0.48834524     1.51690
Co2801     Co  0.66890290  0.33372368  0.47050013     1.51570
Co2802     Co  0.70438527  0.39044872  0.03089675     1.51470
O2803       O  0.68955472  0.35554848  0.50537844    -1.42310
C2804       C  0.65388711  0.38903542  0.08018438     1.09240
C2805       C  0.65238798  0.39195491  0.43706579     1.09330
C2806       C  0.62051397  0.36133586  0.50366965     1.09270
C2807       C  0.71583096  0.44668520  0.51328529     1.09240
O2808       O  0.93929474  0.44542265  0.00634546    -0.80380
O2809       O  0.88267785  0.38278012  0.47163334    -0.80400
O2810       O  0.91630483  0.40533108  0.43374872    -0.80410
O2811       O  0.90739657  0.36699812  0.06361676    -0.80350
O2812       O  0.90578686  0.36073042  0.41973194    -0.80470
O2813       O  0.90920672  0.41487124  0.05179301    -0.80390
O2814       O  0.88049289  0.35699151  0.01390801    -0.80380
O2815       O  0.96488675  0.43014997  0.46677035    -0.80420
C2816       C  0.95716180  0.45046789  0.48550372     1.09310
C2817       C  0.86835647  0.37223160  0.99254167     1.09200
C2818       C  0.90210075  0.38838452  0.41527258     1.09330
C2819       C  0.89884143  0.39406388  0.06727031     1.09210
O2820       O  0.95982181  0.38100249  0.06776931    -0.80380
O2821       O  0.95851975  0.34495074  0.44531328    -0.80460
O2822       O  0.98570547  0.37365576  0.48516042    -0.80390
O2823       O  0.91198584  0.31030761  0.02788292    -0.80370
O2824       O  0.90758421  0.32204982  0.47603322    -0.80420
O2825       O  0.98860449  0.40776233  0.02137215    -0.80390
O2826       O  0.96091403  0.33979778  0.04087456    -0.80350
O2827       O  0.97065808  0.38606228  0.42358823    -0.80420
Co2828     Co  0.94804265  0.41141953  0.03488621     1.51530
Co2829     Co  0.92019397  0.36444810  0.46200720     1.51690
Co2830     Co  0.95122730  0.38970974  0.46208515     1.51570
Co2831     Co  0.92192077  0.34924828  0.02308316     1.51470
O2832       O  0.93248045  0.38401369  0.00252011    -1.42310
C2833       C  0.96922540  0.35459780  0.06428161     1.09240
C2834       C  0.97433864  0.35848619  0.42583539     1.09330
C2835       C  0.00000337  0.38717697  0.00504421     1.09270
C2836       C  0.90492165  0.30353722  0.99955729     1.09240
O2837       O  0.71135705  0.12466467  0.19386071    -0.80380
O2838       O  0.67498704  0.14380363  0.32413878    -0.80400
O2839       O  0.67573672  0.17469793  0.23975854    -0.80410
O2840       O  0.74396466  0.12019926  0.25868358    -0.80350
O2841       O  0.64216311  0.16366917  0.27206590    -0.80470
O2842       O  0.73986516  0.08353319  0.22680214    -0.80390
O2843       O  0.71319772  0.14850791  0.29904858    -0.80380
O2844       O  0.67558326  0.15490770  0.17764394    -0.80420
C2845       C  0.70081155  0.14418982  0.17398081     1.09310
C2846       C  0.69987551  0.15358319  0.32329217     1.09200
C2847       C  0.65446001  0.18263029  0.25626289     1.09330
C2848       C  0.75405021  0.10394648  0.23753125     1.09210
O2849       O  0.69158396  0.05494138  0.24732984    -0.80380
O2850       O  0.62970679  0.10430915  0.25475713    -0.80460
O2851       O  0.66280704  0.09919652  0.19121033    -0.80390
O2852       O  0.69605911  0.09375381  0.33012513    -0.80370
O2853       O  0.65932761  0.08320935  0.30361176    -0.80420
O2854       O  0.69954006  0.06789885  0.18411036    -0.80390
O2855       O  0.72590479  0.06448081  0.28113218    -0.80350
O2856       O  0.63134165  0.13886139  0.21921784    -0.80420
Co2857     Co  0.69787191  0.09026700  0.22209923     1.51530
Co2858     Co  0.65281713  0.12299855  0.28703714     1.51690
Co2859     Co  0.67385898  0.13596986  0.21825271     1.51570
Co2860     Co  0.71838282  0.10713124  0.29051070     1.51470
O2861       O  0.68586822  0.11474275  0.25902609    -1.42310
C2862       C  0.71278038  0.04620876  0.26450253     1.09240
C2863       C  0.61792528  0.11902170  0.23262999     1.09330
C2864       C  0.67536778  0.07849306  0.17510088     1.09270
C2865       C  0.67112831  0.08428455  0.32987646     1.09240
O2866       O  0.90966130  0.12589387  0.19031771    -0.80380
O2867       O  0.94871892  0.10163018  0.32790627    -0.80400
O2868       O  0.95305176  0.05934254  0.24408648    -0.80410
O2869       O  0.87853398  0.11642026  0.25856620    -0.80350
O2870       O  0.98150332  0.07612990  0.28122679    -0.80470
O2871       O  0.87797022  0.15641518  0.23093540    -0.80390
O2872       O  0.91284607  0.09189388  0.29985943    -0.80380
O2873       O  0.92300429  0.07866523  0.18883089    -0.80420
C2874       C  0.90893592  0.10095336  0.17653008     1.09310
C2875       C  0.92524522  0.08971469  0.32583230     1.09200
C2876       C  0.97345525  0.05514821  0.26403317     1.09330
C2877       C  0.86634396  0.13333180  0.23886087     1.09210
O2878       O  0.92487412  0.18967677  0.25134710    -0.80380
O2879       O  0.49239108  0.13267402  0.25828962    -0.80460
O2880       O  0.96140981  0.11344168  0.19513099    -0.80390
O2881       O  0.92449576  0.15021640  0.32787797    -0.80370
O2882       O  0.95991279  0.16002338  0.29996346    -0.80420
O2883       O  0.95665204  0.16125515  0.20228931    -0.80390
O2884       O  0.89091189  0.17620686  0.28188765    -0.80350
O2885       O  0.47994834  0.09910214  0.22330752    -0.80420
Co2886     Co  0.91961024  0.15673903  0.22265412     1.51530
Co2887     Co  0.96894569  0.11877615  0.28988441     1.51690
Co2888     Co  0.93516817  0.09758180  0.22765077     1.51570
Co2889     Co  0.90281522  0.13305138  0.29037134     1.51470
O2890       O  0.93486720  0.12773082  0.25955122    -1.42310
C2891       C  0.90383923  0.19656320  0.26826502     1.09240
C2892       C  0.49888149  0.11531153  0.23670463     1.09330
C2893       C  0.96632369  0.13966847  0.18616488     1.09270
C2894       C  0.94846261  0.16121088  0.32601669     1.09240
O2895       O  0.53334953  0.36146393  0.19225023    -0.80380
O2896       O  0.57303724  0.34268363  0.32726011    -0.80400
O2897       O  0.60080091  0.31748660  0.22762563    -0.80410
O2898       O  0.00599222  0.36492223  0.25835601    -0.80350
O2899       O  0.59712267  0.31360554  0.27876684    -0.80470
O2900       O  0.00689662  0.40108799  0.22482906    -0.80390
O2901       O  0.53260805  0.33872178  0.30445307    -0.80380
O2902       O  0.56814526  0.33133273  0.17788745    -0.80420
C2903       C  0.54401442  0.34355021  0.17175875     1.09310
C2904       C  0.54814777  0.33400845  0.32810497     1.09200
C2905       C  0.60455235  0.30270596  0.25286904     1.09330
C2906       C  0.99333236  0.38157967  0.23875660     1.09210
O2907       O  0.55618172  0.43147835  0.24371111    -0.80380
O2908       O  0.62384927  0.36602598  0.26093716    -0.80460
O2909       O  0.58742610  0.38186744  0.19180074    -0.80390
O2910       O  0.55507822  0.39502040  0.32757287    -0.80370
O2911       O  0.59300865  0.39729838  0.30062894    -0.80420
O2912       O  0.55179986  0.41492084  0.18106495    -0.80390
O2913       O  0.52338206  0.42270966  0.27812709    -0.80350
O2914       O  0.60461945  0.37149960  0.21286623    -0.80420
Co2915     Co  0.54956736  0.39436781  0.22071683     1.51530
Co2916     Co  0.59484612  0.35594054  0.28946145     1.51690
Co2917     Co  0.56946009  0.34849525  0.21937483     1.51570
Co2918     Co  0.53052215  0.37980174  0.29032051     1.51470
O2919       O  0.56181994  0.36937745  0.25991350    -1.42310
C2920       C  0.53656484  0.44083322  0.26176457     1.09240
C2921       C  0.62487060  0.37472121  0.23311421     1.09330
C2922       C  0.57639483  0.40397775  0.17467334     1.09270
C2923       C  0.58105888  0.40128831  0.32613964     1.09240
O2924       O  0.83136522  0.40652195  0.19415182    -0.80380
O2925       O  0.79435182  0.42479744  0.31289769    -0.80400
O2926       O  0.76734901  0.42300209  0.21435311    -0.80410
O2927       O  0.86533207  0.35665255  0.27981318    -0.80350
O2928       O  0.80103938  0.43490324  0.24780842    -0.80470
O2929       O  0.86050237  0.39039712  0.24399114    -0.80390
O2930       O  0.83268305  0.39912145  0.29994022    -0.80380
O2931       O  0.79622329  0.39225199  0.16709218    -0.80420
C2932       C  0.81957404  0.40476934  0.16783429     1.09310
C2933       C  0.82003248  0.41650567  0.31915016     1.09200
C2934       C  0.77987092  0.44243829  0.23016667     1.09330
C2935       C  0.87638184  0.37576490  0.26254627     1.09210
O2936       O  0.85308215  0.32789721  0.23093762    -0.80380
O2937       O  0.75108714  0.40744278  0.26749392    -0.80460
O2938       O  0.78241100  0.33767597  0.19829722    -0.80390
O2939       O  0.81846176  0.34608414  0.32598885    -0.80370
O2940       O  0.78083346  0.36778532  0.30308811    -0.80420
O2941       O  0.82296638  0.34441265  0.17695674    -0.80390
O2942       O  0.82084208  0.31847436  0.26613571    -0.80350
O2943       O  0.75496867  0.36698744  0.24261783    -0.80420
Co2944     Co  0.84128050  0.36800185  0.21267280     1.51530
Co2945     Co  0.79393697  0.40111681  0.27462380     1.51690
Co2946     Co  0.77594473  0.37943289  0.20714546     1.51570
Co2947     Co  0.82215165  0.35903581  0.28190033     1.51470
O2948       O  0.80793229  0.37488284  0.23905516    -1.42310
C2949       C  0.84172422  0.30983984  0.24943404     1.09240
C2950       C  0.73909147  0.38680495  0.25357065     1.09330
C2951       C  0.79910401  0.33244322  0.17634193     1.09270
C2952       C  0.79217986  0.35454785  0.32738430     1.09240
C2953       C  0.94525200  0.40449721  0.23546966    -0.12510
C2954       C  0.96263504  0.37879922  0.23673314     0.04500
C2955       C  0.95126334  0.35189998  0.24634389    -0.07800
C2956       C  0.92383209  0.35233760  0.25790562    -0.08540
C2957       C  0.90682745  0.37831697  0.25822587    -0.03090
C2958       C  0.91738389  0.40467738  0.24580355     0.03730
N2959       N  0.90034144  0.43186916  0.24365658     0.66230
H2960       H  0.95399394  0.42502798  0.22861596     0.15130
H2961       H  0.91508269  0.33188235  0.26499842     0.14840
N2962       N  0.96751235  0.32412395  0.24529970     0.73940
O2963       O  0.90414693  0.45006163  0.22179296    -0.39510
O2964       O  0.88319501  0.43900361  0.26494923    -0.39460
O2965       O  0.98630584  0.31963735  0.22501376    -0.40160
O2966       O  0.96154809  0.30306735  0.26298396    -0.40230
C2967       C  0.69019255  0.41130564  0.25072538    -0.12510
C2968       C  0.70869533  0.38699030  0.24460055     0.04500
C2969       C  0.69857189  0.36358421  0.22630731    -0.07800
C2970       C  0.67105208  0.36537929  0.21408728    -0.08540
C2971       C  0.65165188  0.38661034  0.22491547    -0.03090
C2972       C  0.66131787  0.41100662  0.24185861     0.03730
N2973       N  0.64180802  0.43458289  0.25137620     0.66230
H2974       H  0.69797639  0.42984816  0.26345373     0.15130
H2975       H  0.66348194  0.34700610  0.20083897     0.14840
N2976       N  0.71495894  0.33653523  0.22200082     0.73940
O2977       O  0.64937681  0.45337963  0.27111399    -0.39510
O2978       O  0.61747111  0.43786307  0.23866183    -0.39460
O2979       O  0.72379363  0.32146662  0.24568482    -0.40160
O2980       O  0.71533071  0.32489867  0.19519802    -0.40230
C2981       C  0.99271116  0.01005294  0.23636695    -0.12510
C2982       C  0.99043520  0.02601414  0.26453884     0.04500
C2983       C  0.50676286  0.01513942  0.29107417    -0.07800
C2984       C  0.52328319  0.98828822  0.28914648    -0.08540
C2985       C  0.52515629  0.47229224  0.26101573    -0.03090
C2986       C  0.51010527  0.98400396  0.23423036     0.03730
N2987       N  0.01223620  0.46975205  0.20445660     0.66230
H2988       H  0.98152206  0.01835330  0.21532497     0.15130
H2989       H  0.53400205  0.97928067  0.31016254     0.14840
N2990       N  0.50574531  0.03008791  0.32063177     0.73940
O2991       O  0.99007756  0.46238063  0.19021860    -0.39510
O2992       O  0.53465144  0.47161110  0.18924791    -0.39460
O2993       O  0.98216245  0.03802231  0.33196960    -0.40160
O2994       O  0.52790943  0.03140965  0.33752779    -0.40230
C2995       C  0.88273199  0.27447227  0.23979934    -0.12510
C2996       C  0.85654464  0.28010692  0.25442924     0.04500
C2997       C  0.84781815  0.25910146  0.27640692    -0.07800
C2998       C  0.86529515  0.23360913  0.28306230    -0.08540
C2999       C  0.89074173  0.22735674  0.26718396    -0.03090
C3000       C  0.89995419  0.24890519  0.24609589     0.03730
N3001       N  0.92680946  0.24559918  0.23103781     0.66230
H3002       H  0.89057566  0.29057101  0.22378389     0.15130
H3003       H  0.85792569  0.21762588  0.29951849     0.14840
N3004       N  0.82089555  0.26244936  0.29122891     0.73940
O3005       O  0.92878695  0.25260173  0.20239328    -0.39510
O3006       O  0.94914312  0.24063055  0.24746187    -0.39460
O3007       O  0.79857580  0.26615139  0.27451526    -0.40160
O3008       O  0.81893936  0.25632065  0.32009611    -0.40230
C3009       C  0.72119649  0.50274056  0.23036649    -0.12510
C3010       C  0.72743201  0.51713068  0.25864147     0.04500
C3011       C  0.75224339  0.50779369  0.27603658    -0.07800
C3012       C  0.77062020  0.48571204  0.26399136    -0.08540
C3013       C  0.76442976  0.47120783  0.23575311    -0.03090
C3014       C  0.73943637  0.48027917  0.21849649     0.03730
N3015       N  0.73254306  0.46764433  0.18856163     0.66230
H3016       H  0.70283367  0.51023236  0.21622789     0.15130
H3017       H  0.78908530  0.47856953  0.27813503     0.14840
N3018       N  0.75893658  0.02004316  0.30624024     0.73940
O3019       O  0.70698752  0.46553113  0.18020664    -0.39510
O3020       O  0.75157666  0.46274869  0.16861046    -0.39460
O3021       O  0.73997969  0.02364624  0.32652588    -0.40160
O3022       O  0.78432851  0.02396407  0.31406667    -0.40230
C3023       C  0.65488510  0.23554101  0.23924271    -0.12510
C3024       C  0.64142423  0.21341225  0.25532511     0.04500
C3025       C  0.61518754  0.22122568  0.27001891    -0.07800
C3026       C  0.60389926  0.25033627  0.26866871    -0.08540
C3027       C  0.61744406  0.27219047  0.25270004    -0.03090
C3028       C  0.64335930  0.26473485  0.23826507     0.03730
N3029       N  0.65987079  0.28725081  0.22619136     0.66230
H3030       H  0.67508328  0.23044160  0.22846476     0.15130
H3031       H  0.58394785  0.25586046  0.27986829     0.14840
N3032       N  0.59910322  0.20016522  0.28598604     0.73940
O3033       O  0.66561105  0.30826471  0.24396068    -0.39510
O3034       O  0.67316001  0.28330127  0.20100780    -0.39460
O3035       O  0.59041635  0.20581152  0.31329608    -0.40160
O3036       O  0.58756155  0.18050160  0.27028640    -0.40230
C3037       C  0.78805650  0.14027396  0.22570695    -0.12510
C3038       C  0.78189373  0.11044547  0.22593936     0.04500
C3039       C  0.80390585  0.08856153  0.22301440    -0.07800
C3040       C  0.83185558  0.09708254  0.22440189    -0.08540
C3041       C  0.83785879  0.12677373  0.22821138    -0.03090
C3042       C  0.81576643  0.14870075  0.22692273     0.03730
N3043       N  0.82067792  0.17906031  0.23190586     0.66230
H3044       H  0.77112669  0.15718543  0.22784206     0.15130
H3045       H  0.84905185  0.08031172  0.22441299     0.14840
N3046       N  0.79851204  0.05784125  0.22168360     0.73940
O3047       O  0.80926531  0.19833864  0.21348394    -0.39510
O3048       O  0.83012482  0.18685525  0.25834588    -0.39460
O3049       O  0.78048476  0.04893930  0.20216002    -0.40160
O3050       O  0.81474640  0.03915409  0.23623047    -0.40230
C3051       C  0.57109395  0.13974180  0.21558479    -0.12510
C3052       C  0.58776959  0.11499486  0.22564987     0.04500
C3053       C  0.57439359  0.08887128  0.23380634    -0.07800
C3054       C  0.54489715  0.08891152  0.23315304    -0.08540
C3055       C  0.52846475  0.11482048  0.22723780    -0.03090
C3056       C  0.54169941  0.14070624  0.21806414     0.03730
N3057       N  0.52614116  0.16825886  0.21162679     0.66230
H3058       H  0.58107885  0.15971556  0.20920577     0.15130
H3059       H  0.53483173  0.06928455  0.24058288     0.14840
N3060       N  0.58987566  0.06266483  0.24483814     0.73940
O3061       O  0.53333708  0.18417553  0.18904440    -0.39510
O3062       O  0.50978677  0.17955628  0.23182594    -0.39460
O3063       O  0.59927615  0.06162092  0.27287455    -0.40160
O3064       O  0.58558369  0.03868949  0.23129672    -0.40230
C3065       C  0.54385566  0.34428072  0.38409511    -0.12510
C3066       C  0.53462805  0.32800932  0.35850205     0.04500
C3067       C  0.00797837  0.31532725  0.35994285    -0.07800
C3068       C  0.98984045  0.32302953  0.38490069    -0.08540
C3069       C  0.99727957  0.34379225  0.40744647    -0.03090
C3070       C  0.52526705  0.35396425  0.40750328     0.03730
N3071       N  0.53532230  0.37529291  0.42942823     0.66230
H3072       H  0.56438741  0.35361597  0.38330556     0.15130
H3073       H  0.96878866  0.31485744  0.38515132     0.14840
N3074       N  0.99854429  0.29604105  0.33556621     0.73940
O3075       O  0.56137905  0.37459514  0.43656934    -0.39510
O3076       O  0.02074204  0.39864613  0.43486854    -0.39460
O3077       O  0.01625649  0.28155053  0.31914038    -0.40160
O3078       O  0.97261200  0.29138563  0.33218427    -0.40230
C3079       C  0.51798586  0.34097416  0.08539071    -0.12510
C3080       C  0.98861889  0.34164451  0.08950410     0.04500
C3081       C  0.97848426  0.33743897  0.12010928    -0.07800
C3082       C  0.99766777  0.33631778  0.14590402    -0.08540
C3083       C  0.52702517  0.33790350  0.14238336    -0.03090
C3084       C  0.53762725  0.33874223  0.11113892     0.03730
N3085       N  0.56744353  0.33945495  0.10444766     0.66230
H3086       H  0.52564594  0.34464368  0.06205217     0.15130
H3087       H  0.98940622  0.33512813  0.16931526     0.14840
N3088       N  0.94873583  0.33503399  0.12545245     0.73940
O3089       O  0.57592244  0.33443066  0.07692087    -0.39510
O3090       O  0.58523019  0.34721750  0.12479427    -0.39460
O3091       O  0.93321712  0.32374700  0.10480744    -0.40160
O3092       O  0.93874761  0.34012460  0.15231778    -0.40230
C3093       C  0.82975024  0.40168170  0.37316769    -0.12510
C3094       C  0.83544498  0.42162024  0.34942219     0.04500
C3095       C  0.86226954  0.43414405  0.35021684    -0.07800
C3096       C  0.88319763  0.42400119  0.37291246    -0.08540
C3097       C  0.87872952  0.40031691  0.39332646    -0.03090
C3098       C  0.85124850  0.38903539  0.39312028     0.03730
N3099       N  0.84465418  0.36362229  0.41117162     0.66230
H3100       H  0.80927075  0.39237842  0.37299772     0.15130
H3101       H  0.90365157  0.43352502  0.37355096     0.14840
N3102       N  0.86848680  0.45699232  0.32822950     0.73940
O3103       O  0.82015566  0.36261001  0.42200832    -0.39510
O3104       O  0.85857933  0.33957224  0.40707634    -0.39460
O3105       O  0.84880519  0.47063358  0.31262768    -0.40160
O3106       O  0.89338346  0.46530660  0.32610428    -0.40230
C3107       C  0.84882384  0.40341195  0.08422327    -0.12510
C3108       C  0.87800306  0.40178610  0.09169314     0.04500
C3109       C  0.88708984  0.40745512  0.12269542    -0.07800
C3110       C  0.86690583  0.41071062  0.14610467    -0.08540
C3111       C  0.83757188  0.40922162  0.13972418    -0.03090
C3112       C  0.82824047  0.40816292  0.10775007     0.03730
N3113       N  0.79880563  0.41346000  0.09858565     0.66230
H3114       H  0.84220948  0.40109422  0.05984029     0.15130
H3115       H  0.87461637  0.41349960  0.17002050     0.14840
N3116       N  0.91662016  0.40947024  0.13106710     0.73940
O3117       O  0.78123288  0.42398576  0.11796484    -0.39510
O3118       O  0.79132953  0.41304205  0.06987762    -0.39460
O3119       O  0.92542767  0.40337733  0.15874958    -0.40160
O3120       O  0.93302685  0.42147010  0.11251696    -0.40230
C3121       C  0.73244801  0.36830778  0.38632093    -0.12510
C3122       C  0.73742993  0.34682057  0.40967997     0.04500
C3123       C  0.76124370  0.32614966  0.40584632    -0.07800
C3124       C  0.77895498  0.32897339  0.37904094    -0.08540
C3125       C  0.77344226  0.35088567  0.35572951    -0.03090
C3126       C  0.74929394  0.37039015  0.35996913     0.03730
N3127       N  0.74110545  0.39332379  0.33802194     0.66230
H3128       H  0.71480414  0.38436291  0.38847217     0.15130
H3129       H  0.79722091  0.31389638  0.37621225     0.14840
N3130       N  0.76870101  0.30294017  0.42845771     0.73940
O3131       O  0.72024472  0.38953087  0.31982716    -0.39510
O3132       O  0.74675891  0.41930427  0.34484829    -0.39460
O3133       O  0.75320932  0.29789732  0.45138814    -0.40160
O3134       O  0.79080123  0.28650370  0.42502393    -0.40230
C3135       C  0.79404771  0.33369767  0.11838460    -0.12510
C3136       C  0.78648395  0.32093594  0.14675817     0.04500
C3137       C  0.76070012  0.30629589  0.14719619    -0.07800
C3138       C  0.73973450  0.31315205  0.12348022    -0.08540
C3139       C  0.74587020  0.33072491  0.09754809    -0.03090
C3140       C  0.77437981  0.33698511  0.09322161     0.03730
N3141       N  0.78381916  0.34360089  0.06246522     0.66230
H3142       H  0.81475286  0.34241196  0.11631930     0.15130
H3143       H  0.71862122  0.30547922  0.12562525     0.14840
N3144       N  0.75577854  0.28472795  0.17122813     0.73940
O3145       O  0.80688955  0.35564568  0.05899344    -0.39510
O3146       O  0.77324757  0.33024013  0.03956450    -0.39460
O3147       O  0.73377970  0.27028839  0.16989157    -0.40160
O3148       O  0.77510395  0.27682871  0.19097120    -0.40230
C3149       C  0.64542753  0.39039556  0.38058146    -0.12510
C3150       C  0.63648651  0.40318199  0.40853719     0.04500
C3151       C  0.60993316  0.41931517  0.40868063    -0.07800
C3152       C  0.59156351  0.41869342  0.38181153    -0.08540
C3153       C  0.60010405  0.40381499  0.35440602    -0.03090
C3154       C  0.62795999  0.39029097  0.35403271     0.03730
N3155       N  0.63834541  0.37348736  0.32800420     0.66230
H3156       H  0.66563461  0.37796854  0.37999228     0.15130
H3157       H  0.57088523  0.43014259  0.38212300     0.14840
N3158       N  0.60186037  0.43708478  0.43505463     0.73940
O3159       O  0.65784940  0.38341104  0.31197706    -0.39510
O3160       O  0.63480851  0.34622265  0.32754505    -0.39460
O3161       O  0.61927573  0.45429159  0.44657482    -0.40160
O3162       O  0.57613497  0.44053275  0.44214332    -0.40230
C3163       C  0.62305459  0.41752010  0.15521007    -0.12510
C3164       C  0.59394889  0.41498110  0.14877130     0.04500
C3165       C  0.58484349  0.41315773  0.11702369    -0.07800
C3166       C  0.60525954  0.40703479  0.09388647    -0.08540
C3167       C  0.63441861  0.40596366  0.10110787    -0.03090
C3168       C  0.64343815  0.41351447  0.13164043     0.03730
N3169       N  0.67314459  0.41474089  0.13942593     0.66230
H3170       H  0.63000047  0.42086697  0.17918825     0.15130
H3171       H  0.59836785  0.40087716  0.07065544     0.14840
N3172       N  0.55521819  0.41501440  0.10840858     0.73940
O3173       O  0.68207367  0.41085904  0.16740201    -0.39510
O3174       O  0.69040063  0.42167316  0.11877293    -0.39300
O3175       O  0.53843006  0.43271081  0.12247563    -0.40160
O3176       O  0.54661235  0.40301648  0.08357544    -0.40230
C3177       C  0.82547269  0.40323230  0.48060732    -0.12510
C3178       C  0.83764230  0.37578912  0.99009355     0.04500
C3179       C  0.82086001  0.35114178  0.99060846    -0.07800
C3180       C  0.79207112  0.35502269  0.98334479    -0.08540
C3181       C  0.77941256  0.38296985  0.47795690    -0.03090
C3182       C  0.79639742  0.40703635  0.47401642     0.03730
N3183       N  0.78486093  0.43476452  0.46203671     0.66230
H3184       H  0.83887498  0.42153767  0.47767087     0.15130
H3185       H  0.77900349  0.33634831  0.98417020     0.14840
N3186       N  0.83237046  0.32217320  0.99848153     0.73940
O3187       O  0.79845928  0.45753957  0.46606131    -0.39510
O3188       O  0.76491025  0.43540948  0.44179610    -0.39460
O3189       O  0.84309324  0.31724372  0.02557957    -0.40160
O3190       O  0.82518957  0.30066252  0.98214568    -0.40230
C3191       C  0.57179721  0.34669657  0.49871891    -0.12510
C3192       C  0.58995078  0.36951294  0.50377651     0.04500
C3193       C  0.57832067  0.39825849  0.01051400    -0.07800
C3194       C  0.54880712  0.40266182  0.01262996    -0.08540
C3195       C  0.53073572  0.37981774  0.00719505    -0.03090
C3196       C  0.54250597  0.35143235  0.49973623     0.03730
N3197       N  0.52536573  0.32724102  0.49229058     0.66230
H3198       H  0.58048401  0.32465059  0.49399916     0.15130
H3199       H  0.53967318  0.42457622  0.01702433     0.14840
N3200       N  0.59544949  0.42332193  0.01456068     0.73940
O3201       O  0.53225398  0.31006213  0.47018008    -0.39510
O3202       O  0.00663460  0.31990334  0.01092824    -0.39460
O3203       O  0.61925912  0.42420851  0.50202665    -0.40160
O3204       O  0.58560031  0.44605437  0.02832702    -0.40230
C3205       C  0.76528487  0.16191183  0.37482972    -0.12510
C3206       C  0.75499262  0.15904483  0.40518648     0.04500
C3207       C  0.72528756  0.16345901  0.40899150    -0.07800
C3208       C  0.70676455  0.16282816  0.38212955    -0.08540
C3209       C  0.71730058  0.16284434  0.35148564    -0.03090
C3210       C  0.74700930  0.16611027  0.34845482     0.03730
N3211       N  0.75917381  0.17267723  0.31865974     0.66230
H3212       H  0.78796919  0.16048492  0.37158654     0.15130
H3213       H  0.68412884  0.16242717  0.38508153     0.14840
N3214       N  0.71384520  0.17085104  0.43908535     0.73940
O3215       O  0.74799405  0.19309537  0.30148526    -0.39510
O3216       O  0.78307115  0.16118302  0.31155483    -0.39460
O3217       O  0.72927624  0.18231729  0.45969901    -0.40160
O3218       O  0.68736602  0.17268484  0.44234794    -0.40230
C3219       C  0.72801848  0.16169689  0.09161449    -0.12510
C3220       C  0.75712704  0.15367480  0.09565046     0.04500
C3221       C  0.76755515  0.14818937  0.12648036    -0.07800
C3222       C  0.74879427  0.14703943  0.15153642    -0.08540
C3223       C  0.71939186  0.15241265  0.14737589    -0.03090
C3224       C  0.70919408  0.16154619  0.11715110     0.03730
N3225       N  0.67976144  0.16897938  0.11147442     0.66230
H3226       H  0.71945292  0.16606544  0.06826520     0.15130
H3227       H  0.75727341  0.14099110  0.17446884     0.14840
N3228       N  0.79730761  0.14325822  0.13242977     0.73940
O3229       O  0.67190065  0.19428550  0.10124696    -0.39510
O3230       O  0.66169042  0.14998812  0.11523091    -0.39460
O3231       O  0.81401189  0.16079902  0.12084035    -0.40160
O3232       O  0.80658418  0.12422836  0.15239026    -0.40230
C3233       C  0.89479029  0.09348816  0.40759753    -0.12510
C3234       C  0.86592456  0.09317711  0.39924672     0.04500
C3235       C  0.85776286  0.08482789  0.36872540    -0.07800
C3236       C  0.87869833  0.07930303  0.34657505    -0.08540
C3237       C  0.90756176  0.08336464  0.35341475    -0.03090
C3238       C  0.91595765  0.08840495  0.38505545     0.03730
N3239       N  0.94535390  0.08804474  0.39468413     0.66230
H3240       H  0.90073599  0.09804603  0.43177063     0.15130
H3241       H  0.87188585  0.07396238  0.32288254     0.14840
N3242       N  0.82843258  0.08373223  0.35912384     0.73940
O3243       O  0.95265348  0.10006399  0.42004239    -0.39510
O3244       O  0.96335255  0.07139959  0.38107049    -0.39460
O3245       O  0.82062444  0.09079854  0.33134207    -0.40160
O3246       O  0.81067474  0.07343065  0.37731365    -0.40230
C3247       C  0.86789922  0.12855170  0.10366540    -0.12510
C3248       C  0.86224424  0.10305331  0.08746804     0.04500
C3249       C  0.87366219  0.07559064  0.09949059    -0.07800
C3250       C  0.88920262  0.07492559  0.12858669    -0.08540
C3251       C  0.89264270  0.10084066  0.14595501    -0.03090
C3252       C  0.88089648  0.12788078  0.13298557     0.03730
N3253       N  0.87901620  0.15492619  0.15007813     0.66230
H3254       H  0.85993661  0.14982813  0.09471130     0.15130
H3255       H  0.89852031  0.05423021  0.13769058     0.14840
N3256       N  0.87105780  0.04881908  0.08210800     0.73940
O3257       O  0.88794160  0.17776635  0.13764148    -0.39510
O3258       O  0.86024569  0.15805043  0.17054358    -0.39460
O3259       O  0.87066439  0.04926399  0.05238264    -0.40160
O3260       O  0.87296989  0.02426882  0.09622631    -0.40230
C3261       C  0.76039192  0.51060896  0.03596010    -0.12510
C3262       C  0.76936610  0.01966439  0.00625596     0.04500
C3263       C  0.75758862  0.00696831  0.47894694    -0.07800
C3264       C  0.73808744  0.48514760  0.48229061    -0.08540
C3265       C  0.73095062  0.47439683  0.51198912    -0.03090
C3266       C  0.74145092  0.48825107  0.03910102     0.03730
N3267       N  0.73147651  0.48165176  0.06974234     0.66230
H3268       H  0.76775045  0.52143781  0.05700962     0.15130
H3269       H  0.72944193  0.97555499  0.46118248     0.14840
N3270       N  0.76460702  0.01599138  0.44766330     0.73940
O3271       O  0.74220666  0.45968974  0.08482813    -0.39510
O3272       O  0.71664032  0.50092576  0.08412672    -0.39460
O3273       O  0.79004907  0.01428575  0.43927715    -0.40160
O3274       O  0.74538894  0.01883977  0.42661275    -0.40230
C3275       C  0.86272470  0.24217604  0.46266505    -0.12510
C3276       C  0.85265063  0.22861919  0.98976938     0.04500
C3277       C  0.86216066  0.23845111  0.01954342    -0.07800
C3278       C  0.88034734  0.26150544  0.02155027    -0.08540
C3279       C  0.88997033  0.27568481  0.99465385    -0.03090
C3280       C  0.88167228  0.26507211  0.46463607     0.03730
N3281       N  0.89292682  0.27623428  0.43607367     0.66230
H3282       H  0.85666922  0.23411708  0.43969578     0.15130
H3283       H  0.88650511  0.26869879  0.04484642     0.14840
N3284       N  0.85461295  0.22464839  0.04829410     0.73940
O3285       O  0.91910659  0.27977016  0.43435301    -0.39510
O3286       O  0.87798992  0.27719361  0.91105532    -0.39460
O3287       O  0.86753564  0.20083360  0.55687702    -0.40160
O3288       O  0.84028087  0.23927973  0.06809201    -0.40230
C3289       C  0.98340160  0.17097472  0.40715801    -0.12510
C3290       C  0.50552412  0.14899822  0.40505548     0.04500
C3291       C  0.50963078  0.13422159  0.37641659    -0.07800
C3292       C  0.49160223  0.14105062  0.35117884    -0.08540
C3293       C  0.96792037  0.16080508  0.35362095    -0.03090
C3294       C  0.96397233  0.17692524  0.38171742     0.03730
N3295       N  0.94151390  0.19954075  0.38464076     0.66230
H3296       H  0.98096183  0.18296304  0.42895109     0.15130
H3297       H  0.49564990  0.12922287  0.32959670     0.14840
N3298       N  0.53211735  0.11225810  0.37202084     0.73940
O3299       O  0.93844378  0.21327438  0.41018352    -0.39510
O3300       O  0.92561620  0.20719158  0.36142651    -0.39460
O3301       O  0.52978503  0.08673999  0.38311192    -0.40160
O3302       O  0.54885080  0.11545525  0.34969691    -0.40230
C3303       C  0.00904553  0.16101458  0.11428965    -0.12510
C3304       C  0.52911260  0.13701197  0.11493383     0.04500
C3305       C  0.53002605  0.11730466  0.14006300    -0.07800
C3306       C  0.50743339  0.11748676  0.15979891    -0.08540
C3307       C  0.98757318  0.14159728  0.16113906    -0.03090
C3308       C  0.98854592  0.16425564  0.13802356     0.03730
N3309       N  0.96784527  0.18865619  0.13613982     0.66230
H3310       H  0.00815620  0.17596215  0.09430227     0.15130
H3311       H  0.50644927  0.09868552  0.17512378     0.14840
N3312       N  0.55391450  0.09690368  0.14540917     0.73940
O3313       O  0.97295661  0.21158963  0.12090241    -0.39510
O3314       O  0.94334186  0.18634390  0.14651869    -0.39460
O3315       O  0.57851615  0.10582040  0.14276813    -0.40160
O3316       O  0.55084258  0.07214912  0.15803868    -0.40230
C3317       C  0.65466291  0.06632194  0.38390171    -0.12510
C3318       C  0.65198807  0.08596533  0.35799012     0.04500
C3319       C  0.62828759  0.10638090  0.35747376    -0.07800
C3320       C  0.61076771  0.10926677  0.38305177    -0.08540
C3321       C  0.61373042  0.09148005  0.41007531    -0.03090
C3322       C  0.63519411  0.06774559  0.40948619     0.03730
N3323       N  0.63804041  0.04498836  0.43344580     0.66230
H3324       H  0.67163606  0.04935603  0.38382621     0.15130
H3325       H  0.59389179  0.12629083  0.38105529     0.14840
N3326       N  0.62049766  0.12454407  0.33080949     0.73940
O3327       O  0.65201433  0.02117084  0.42801632    -0.39510
O3328       O  0.62745917  0.04837856  0.46022322    -0.39460
O3329       O  0.60444202  0.11426286  0.31007300    -0.40160
O3330       O  0.61979076  0.15208904  0.33425054    -0.40230
C3331       C  0.67376469  0.07877514  0.11718626    -0.12510
C3332       C  0.66174668  0.06947139  0.14509350     0.04500
C3333       C  0.63434510  0.05836695  0.14355329    -0.07800
C3334       C  0.61800912  0.06209024  0.11526859    -0.08540
C3335       C  0.62852175  0.07631870  0.08895378    -0.03090
C3336       C  0.65765530  0.08163404  0.08897275     0.03730
N3337       N  0.67084978  0.09030905  0.06056184     0.66230
H3338       H  0.69524396  0.08585924  0.11792692     0.15130
H3339       H  0.59607704  0.05650242  0.11473051     0.14840
N3340       N  0.62273356  0.04379514  0.17019851     0.73940
O3341       O  0.69392892  0.10290081  0.06177676    -0.39510
O3342       O  0.66244405  0.08031659  0.03458001    -0.39460
O3343       O  0.63745830  0.03863949  0.19496792    -0.40160
O3344       O  0.59924376  0.03215047  0.16739673    -0.40230
C3345       C  0.51080023  0.50700988  0.46720891    -0.12510
C3346       C  0.51205040  0.02319273  0.99538728     0.04500
C3347       C  0.99397213  0.01561372  0.02002839    -0.07800
C3348       C  0.97477189  0.99334441  0.01518193    -0.08540
C3349       C  0.97330813  0.47773906  0.98672018    -0.03090
C3350       C  0.99158624  0.48506966  0.46232996     0.03730
N3351       N  0.99053455  0.47113525  0.43207366     0.66230
H3352       H  0.52418976  0.51227959  0.44785123     0.15130
H3353       H  0.96177174  0.98721282  0.03456388     0.14840
N3354       N  0.99488599  0.02953597  0.05022685     0.73940
O3355       O  0.51305390  0.46547614  0.41735085    -0.39510
O3356       O  0.96703132  0.46842258  0.91807655    -0.39460
O3357       O  0.97224160  0.03432191  0.56498382    -0.40160
O3358       O  0.01818707  0.03048085  0.06510226    -0.40230
C3359       C  0.95247546  0.13929749  0.48350816    -0.12510
C3360       C  0.96554457  0.12838749  0.51132259     0.04500
C3361       C  0.94886961  0.12517709  0.03853500    -0.07800
C3362       C  0.91932832  0.13121665  0.03607329    -0.08540
C3363       C  0.90626851  0.14049133  0.50755521    -0.03090
C3364       C  0.92339861  0.14628216  0.48159564     0.03730
N3365       N  0.91167220  0.16034687  0.45352470     0.66230
H3366       H  0.96520414  0.14308956  0.46320266     0.15130
H3367       H  0.90638618  0.12711822  0.05603630     0.14840
N3368       N  0.96087061  0.11449924  0.06819647     0.73940
O3369       O  0.89598070  0.18352512  0.45558758    -0.39510
O3370       O  0.92029186  0.15247760  0.42684283    -0.39460
O3371       O  0.98059502  0.09468813  0.06906752    -0.40160
O3372       O  0.94910217  0.12180319  0.09358930    -0.40230
C3373       C  0.66759232  0.10839422  0.47011331    -0.12510
C3374       C  0.65745131  0.13150621  0.98860737     0.04500
C3375       C  0.67604750  0.14821747  0.00621823    -0.07800
C3376       C  0.70487311  0.14175745  0.00392160    -0.08540
C3377       C  0.71523049  0.11818267  0.98560579    -0.03090
C3378       C  0.69626811  0.10113184  0.46875479     0.03730
N3379       N  0.70538552  0.07527855  0.45212003     0.66230
H3380       H  0.65306433  0.09522323  0.45800810     0.15130
H3381       H  0.71924445  0.15491063  0.01702530     0.14840
N3382       N  0.66622154  0.17004933  0.02813995     0.73940
O3383       O  0.71204931  0.07721264  0.92362289    -0.39510
O3384       O  0.70227978  0.05032861  0.46425711    -0.39460
O3385       O  0.64885016  0.16330424  0.04863586    -0.40160
O3386       O  0.67965157  0.19296416  0.53198762    -0.40230
C3387       C  0.61543535  0.26834172  0.03845759    -0.12510
C3388       C  0.63985388  0.26777215  0.51971478     0.04500
C3389       C  0.64432659  0.24421493  0.49867811    -0.07800
C3390       C  0.62477476  0.22229929  0.49699600    -0.08540
C3391       C  0.60126528  0.22205589  0.51667138    -0.03090
C3392       C  0.59607395  0.24582002  0.03732572     0.03730
N3393       N  0.57116500  0.24814201  0.05635618     0.66230
H3394       H  0.61115785  0.28671119  0.05402105     0.15130
H3395       H  0.62890046  0.20466416  0.48068153     0.14840
N3396       N  0.66885698  0.24157152  0.47936291     0.73940
O3397       O  0.56176618  0.27297761  0.06579957    -0.39510
O3398       O  0.55817110  0.22570227  0.56363716    -0.39460
O3399       O  0.69330309  0.24195107  0.99180826    -0.40160
O3400       O  0.66633065  0.23430695  0.45085869    -0.40230
O3401       O  0.59553813  0.17315111  0.53303315    -0.80380
O3402       O  0.50668820  0.10741538  0.98689040    -0.80400
O3403       O  0.53357750  0.16222596  0.94940875    -0.80410
O3404       O  0.54218780  0.09966687  0.57923210    -0.80350
O3405       O  0.53352284  0.11507118  0.93641096    -0.80470
O3406       O  0.55438630  0.14466921  0.56723451    -0.80390
O3407       O  0.51237871  0.12634109  0.53285852    -0.80380
O3408       O  0.56599779  0.19150462  0.99594507    -0.80420
C3409       C  0.58525383  0.19496259  0.01670677     1.09310
C3410       C  0.99629891  0.12049674  0.01042356     1.09200
C3411       C  0.52471487  0.14182908  0.93207664     1.09330
C3412       C  0.54319965  0.12679990  0.58646653     1.09210
O3413       O  0.60896655  0.12242258  0.57059141    -0.80380
O3414       O  0.58601637  0.08592640  0.95880010    -0.80460
O3415       O  0.61391310  0.15658902  0.97813129    -0.80390
O3416       O  0.53366039  0.06589109  0.52036692    -0.80370
O3417       O  0.53548405  0.05957744  0.96783424    -0.80420
O3418       O  0.61528280  0.11733000  0.50826114    -0.80390
O3419       O  0.58977899  0.08405685  0.54901616    -0.80350
O3420       O  0.58434341  0.12857850  0.93408131    -0.80420
Co3421     Co  0.58449785  0.13110455  0.53529547     1.51530
Co3422     Co  0.54761784  0.09664171  0.97676147     1.51690
Co3423     Co  0.57313643  0.15872483  0.96619455     1.51570
Co3424     Co  0.55055668  0.10619825  0.53672100     1.51470
O3425       O  0.56004973  0.12982042  0.49797454    -1.42310
C3426       C  0.60827662  0.09467237  0.56853121     1.09240
C3427       C  0.59425762  0.10192731  0.93639089     1.09330
C3428       C  0.62740402  0.13533947  0.49164750     1.09270
C3429       C  0.52859720  0.05042105  0.49492513     1.09240
O3430       O  0.77767782  0.06758238  0.52291618    -0.80380
O3431       O  0.86498229  0.13536410  0.97672269    -0.80400
O3432       O  0.83338712  0.08103384  0.93754515    -0.80410
O3433       O  0.84092880  0.13337782  0.54642105    -0.80350
O3434       O  0.83699740  0.12869153  0.92645192    -0.80470
O3435       O  0.82496362  0.08913674  0.55192121    -0.80390
O3436       O  0.85705757  0.14688744  0.52453933    -0.80380
O3437       O  0.80223395  0.05096855  0.98261888    -0.80420
C3438       C  0.78499374  0.04682794  0.50449559     1.09310
C3439       C  0.87506562  0.14115454  0.50308887     1.09200
C3440       C  0.84460234  0.10148761  0.92255855     1.09330
C3441       C  0.84211060  0.10786194  0.56039547     1.09210
O3442       O  0.77283398  0.11378370  0.56435761    -0.80380
O3443       O  0.78500160  0.15784125  0.95295769    -0.80460
O3444       O  0.75601751  0.09062359  0.96982156    -0.80390
O3445       O  0.82415169  0.19153226  0.51144706    -0.80370
O3446       O  0.83621356  0.18657050  0.96126719    -0.80420
O3447       O  0.76095342  0.12593816  0.50388671    -0.80390
O3448       O  0.78877846  0.15692993  0.55016294    -0.80350
O3449       O  0.78418015  0.11838445  0.92399950    -0.80420
Co3450     Co  0.79302692  0.10711598  0.52698374     1.51530
Co3451     Co  0.82486730  0.14569443  0.96797665     1.51690
Co3452     Co  0.79530202  0.08625996  0.95530378     1.51570
Co3453     Co  0.81502665  0.14962472  0.51009614     1.51470
O3454       O  0.81413638  0.10908323  0.48982773    -1.42310
C3455       C  0.77374369  0.14119417  0.56871290     1.09240
C3456       C  0.77494023  0.14450725  0.92940053     1.09330
C3457       C  0.74556686  0.11139716  0.48607736     1.09270
C3458       C  0.83602537  0.20172165  0.98692768     1.09240
O3459       O  0.65172754  0.31454205  0.53883599    -0.80380
O3460       O  0.73000344  0.39389090  0.96697392    -0.80400
O3461       O  0.70594696  0.32791003  0.94918767    -0.80410
O3462       O  0.72430430  0.37143018  0.56847554    -0.80350
O3463       O  0.71217425  0.37686593  0.94777903    -0.80470
O3464       O  0.70300537  0.33028082  0.56508109    -0.80390
O3465       O  0.74282360  0.38133322  0.51409853    -0.80380
O3466       O  0.67491894  0.29805741  0.99760095    -0.80420
C3467       C  0.65738623  0.29408474  0.01939882     1.09310
C3468       C  0.74986254  0.38717430  0.98660422     1.09200
C3469       C  0.71765095  0.34998088  0.93725226     1.09330
C3470       C  0.72317876  0.34451498  0.57612271     1.09210
O3471       O  0.65400563  0.36110609  0.58212154    -0.80380
O3472       O  0.66220344  0.40863644  0.95757734    -0.80460
O3473       O  0.62974065  0.34036525  0.98654284    -0.80390
O3474       O  0.71734068  0.43030171  0.53820192    -0.80370
O3475       O  0.70385151  0.43727279  0.98797554    -0.80420
O3476       O  0.63684006  0.37347325  0.52261035    -0.80390
O3477       O  0.66836832  0.40186289  0.55849732    -0.80350
O3478       O  0.65776080  0.36445478  0.93851678    -0.80420
Co3479     Co  0.67029583  0.35244075  0.54319092     1.51530
Co3480     Co  0.69288847  0.39583437  0.98834525     1.51690
Co3481     Co  0.66890291  0.33372364  0.97050016     1.51570
Co3482     Co  0.70438526  0.39044875  0.53089674     1.51470
O3483       O  0.68955473  0.35554844  0.00537846    -1.42310
C3484       C  0.65388708  0.38903545  0.58018436     1.09240
C3485       C  0.65238797  0.39195486  0.93706581     1.09330
C3486       C  0.62051399  0.36133582  0.00366968     1.09270
C3487       C  0.71583096  0.44668516  0.01328531     1.09240
O3488       O  0.93929472  0.44542269  0.50634551    -0.80380
O3489       O  0.88267786  0.38278010  0.97163333    -0.80400
O3490       O  0.91630485  0.40533103  0.93374870    -0.80410
O3491       O  0.90739657  0.36699811  0.56361676    -0.80350
O3492       O  0.90578686  0.36073038  0.91973194    -0.80470
O3493       O  0.90920670  0.41487125  0.55179304    -0.80390
O3494       O  0.88049289  0.35699152  0.51390801    -0.80380
O3495       O  0.96488678  0.43014992  0.96677031    -0.80420
C3496       C  0.95716182  0.45046785  0.98550368     1.09310
C3497       C  0.86835646  0.37223162  0.49254168     1.09200
C3498       C  0.90210076  0.38838447  0.91527257     1.09330
C3499       C  0.89884142  0.39406388  0.56727033     1.09210
O3500       O  0.95982179  0.38100250  0.56776933    -0.80380
O3501       O  0.95851975  0.34495068  0.94531328    -0.80460
O3502       O  0.98570549  0.37365571  0.98516041    -0.80390
O3503       O  0.91198585  0.31030762  0.52788290    -0.80370
O3504       O  0.90758421  0.32204979  0.97603324    -0.80420
O3505       O  0.98860448  0.40776236  0.52137218    -0.80390
O3506       O  0.96091403  0.33979780  0.54087455    -0.80350
O3507       O  0.97065810  0.38606221  0.92358822    -0.80420
Co3508     Co  0.94804264  0.41141955  0.53488623     1.51530
Co3509     Co  0.92019398  0.36444807  0.96200720     1.51690
Co3510     Co  0.95122732  0.38970969  0.96208513     1.51570
Co3511     Co  0.92192077  0.34924829  0.52308316     1.51470
O3512       O  0.93248044  0.38401372  0.50252012    -1.42310
C3513       C  0.96922540  0.35459781  0.56428161     1.09240
C3514       C  0.97433865  0.35848612  0.92583539     1.09330
C3515       C  0.00000336  0.38717701  0.50504423     1.09270
C3516       C  0.90492166  0.30353724  0.49955727     1.09240
O3517       O  0.71135709  0.12466462  0.69386069    -0.80380
O3518       O  0.67498711  0.14380365  0.82413874    -0.80400
O3519       O  0.67573675  0.17469792  0.73975849    -0.80410
O3520       O  0.74396471  0.12019920  0.75868357    -0.80350
O3521       O  0.64216316  0.16366917  0.77206587    -0.80470
O3522       O  0.73986519  0.08353314  0.72680213    -0.80390
O3523       O  0.71319778  0.14850790  0.79904854    -0.80380
O3524       O  0.67558331  0.15490766  0.67764391    -0.80420
C3525       C  0.70081160  0.14418977  0.67398079     1.09310
C3526       C  0.69987558  0.15358319  0.82329213     1.09200
C3527       C  0.65446004  0.18263029  0.75626285     1.09330
C3528       C  0.75405025  0.10394642  0.73753123     1.09210
O3529       O  0.69158398  0.05494136  0.74732985    -0.80380
O3530       O  0.62970683  0.10430914  0.75475713    -0.80460
O3531       O  0.66280707  0.09919649  0.69121034    -0.80390
O3532       O  0.69605914  0.09375382  0.83012513    -0.80370
O3533       O  0.65932764  0.08320936  0.80361176    -0.80420
O3534       O  0.69954007  0.06789880  0.68411037    -0.80390
O3535       O  0.72590481  0.06448078  0.78113219    -0.80350
O3536       O  0.63134168  0.13886136  0.71921781    -0.80420
Co3537     Co  0.69787194  0.09026697  0.72209923     1.51530
Co3538     Co  0.65281717  0.12299855  0.78703712     1.51690
Co3539     Co  0.67385902  0.13596984  0.71825269     1.51570
Co3540     Co  0.71838286  0.10713122  0.79051068     1.51470
O3541       O  0.68586826  0.11474274  0.75902607    -1.42310
C3542       C  0.71278040  0.04620874  0.76450254     1.09240
C3543       C  0.61792531  0.11902169  0.73262997     1.09330
C3544       C  0.67536780  0.07849302  0.67510089     1.09270
C3545       C  0.67112833  0.08428456  0.82987646     1.09240
O3546       O  0.90966136  0.12589391  0.69031771    -0.80380
O3547       O  0.94871895  0.10163022  0.82790631    -0.80400
O3548       O  0.95305177  0.05934257  0.74408649    -0.80410
O3549       O  0.87853398  0.11642022  0.75856622    -0.80350
O3550       O  0.98150332  0.07612992  0.78122683    -0.80470
O3551       O  0.87797024  0.15641513  0.73093540    -0.80390
O3552       O  0.91284609  0.09189388  0.79985950    -0.80380
O3553       O  0.92300436  0.07866527  0.68883087    -0.80420
C3554       C  0.90893600  0.10095340  0.67653006     1.09310
C3555       C  0.92524526  0.08971471  0.82583237     1.09200
C3556       C  0.97345525  0.05514823  0.76403320     1.09330
C3557       C  0.86634398  0.13333174  0.73886086     1.09210
O3558       O  0.92487409  0.18967676  0.75134720    -0.80380
O3559       O  0.49239110  0.13267402  0.75828964    -0.80460
O3560       O  0.96140983  0.11344177  0.69513103    -0.80390
O3561       O  0.92449574  0.15021642  0.82787798    -0.80370
O3562       O  0.95991277  0.16002341  0.79996346    -0.80420
O3563       O  0.95665207  0.16125523  0.70228945    -0.80390
O3564       O  0.89091182  0.17620682  0.78188768    -0.80350
O3565       O  0.47994836  0.09910215  0.72330753    -0.80420
Co3566     Co  0.91961025  0.15673904  0.72265418     1.51530
Co3567     Co  0.96894570  0.11877617  0.78988443     1.51690
Co3568     Co  0.93516820  0.09758183  0.72765076     1.51570
Co3569     Co  0.90281520  0.13305136  0.79037137     1.51470
O3570       O  0.93486720  0.12773082  0.75955125    -1.42310
C3571       C  0.90383917  0.19656318  0.76826507     1.09240
C3572       C  0.49888151  0.11531153  0.73670465     1.09330
C3573       C  0.96632372  0.13966858  0.68616497     1.09270
C3574       C  0.94846259  0.16121092  0.82601669     1.09240
O3575       O  0.53334952  0.36146395  0.69225022    -0.80380
O3576       O  0.57303723  0.34268357  0.82726010    -0.80400
O3577       O  0.60080090  0.31748660  0.72762561    -0.80410
O3578       O  0.00599221  0.36492220  0.75835601    -0.80350
O3579       O  0.59712266  0.31360551  0.77876681    -0.80470
O3580       O  0.00689660  0.40108798  0.72482909    -0.80390
O3581       O  0.53260804  0.33872173  0.80445305    -0.80380
O3582       O  0.56814526  0.33133275  0.67788743    -0.80420
C3583       C  0.54401442  0.34355022  0.67175874     1.09310
C3584       C  0.54814775  0.33400839  0.82810495     1.09200
C3585       C  0.60455234  0.30270595  0.75286900     1.09330
C3586       C  0.99333234  0.38157965  0.73875661     1.09210
O3587       O  0.55618169  0.43147835  0.74371116    -0.80380
O3588       O  0.62384925  0.36602597  0.76093717    -0.80460
O3589       O  0.58742609  0.38186746  0.69180075    -0.80390
O3590       O  0.55507820  0.39502034  0.82757289    -0.80370
O3591       O  0.59300863  0.39729834  0.80062897    -0.80420
O3592       O  0.55179985  0.41492086  0.68106497    -0.80390
O3593       O  0.52338203  0.42270963  0.77812713    -0.80350
O3594       O  0.60461944  0.37149962  0.71286624    -0.80420
Co3595     Co  0.54956734  0.39436781  0.72071684     1.51530
Co3596     Co  0.59484610  0.35594051  0.78946145     1.51690
Co3597     Co  0.56946008  0.34849526  0.71937483     1.51570
Co3598     Co  0.53052213  0.37980170  0.79032052     1.51470
O3599       O  0.56181992  0.36937743  0.75991351    -1.42310
C3600       C  0.53656480  0.44083320  0.76176463     1.09240
C3601       C  0.62487058  0.37472121  0.73311423     1.09330
C3602       C  0.57639482  0.40397777  0.67467336     1.09270
C3603       C  0.58105885  0.40128826  0.82613966     1.09240
O3604       O  0.83136520  0.40652191  0.69415183    -0.80380
O3605       O  0.79435183  0.42479744  0.81289770    -0.80400
O3606       O  0.76734900  0.42300208  0.71435312    -0.80410
O3607       O  0.86533204  0.35665251  0.77981319    -0.80350
O3608       O  0.80103938  0.43490322  0.74780842    -0.80470
O3609       O  0.86050235  0.39039708  0.74399114    -0.80390
O3610       O  0.83268305  0.39912142  0.79994024    -0.80380
O3611       O  0.79622326  0.39225197  0.66709219    -0.80420
C3612       C  0.81957402  0.40476931  0.66783431     1.09310
C3613       C  0.82003249  0.41650565  0.81915017     1.09200
C3614       C  0.77987092  0.44243828  0.73016668     1.09330
C3615       C  0.87638182  0.37576486  0.76254627     1.09210
O3616       O  0.85308210  0.32789717  0.73093764    -0.80380
O3617       O  0.75108714  0.40744279  0.76749395    -0.80460
O3618       O  0.78241096  0.33767595  0.69829724    -0.80390
O3619       O  0.81846175  0.34608411  0.82598886    -0.80370
O3620       O  0.78083345  0.36778533  0.80308814    -0.80420
O3621       O  0.82296633  0.34441262  0.67695675    -0.80390
O3622       O  0.82084203  0.31847434  0.76613573    -0.80350
O3623       O  0.75496865  0.36698745  0.74261786    -0.80420
Co3624     Co  0.84128047  0.36800181  0.71267282     1.51530
Co3625     Co  0.79393696  0.40111681  0.77462381     1.51690
Co3626     Co  0.77594470  0.37943288  0.70714548     1.51570
Co3627     Co  0.82215162  0.35903579  0.78190034     1.51470
O3628       O  0.80793227  0.37488283  0.73905518    -1.42310
C3629       C  0.84172417  0.30983981  0.74943406     1.09240
C3630       C  0.73909146  0.38680496  0.75357068     1.09330
C3631       C  0.79910396  0.33244321  0.67634194     1.09270
C3632       C  0.79217984  0.35454784  0.82738432     1.09240
C3633       C  0.94525198  0.40449718  0.73546969    -0.12510
C3634       C  0.96263502  0.37879919  0.73673316     0.04500
C3635       C  0.95126332  0.35189995  0.74634390    -0.07800
C3636       C  0.92383208  0.35233756  0.75790563    -0.08540
C3637       C  0.90682743  0.37831693  0.75822589    -0.03090
C3638       C  0.91738387  0.40467735  0.74580358     0.03730
N3639       N  0.90034142  0.43186912  0.74365661     0.66230
H3640       H  0.95399392  0.42502795  0.72861599     0.15130
H3641       H  0.91508268  0.33188231  0.76499842     0.14840
N3642       N  0.96751234  0.32412392  0.74529970     0.73940
O3643       O  0.90414691  0.45006160  0.72179301    -0.39510
O3644       O  0.88319498  0.43900356  0.76494926    -0.39460
O3645       O  0.98630582  0.31963733  0.72501375    -0.40160
O3646       O  0.96154809  0.30306731  0.76298395    -0.40230
C3647       C  0.69019253  0.41130566  0.75072541    -0.12510
C3648       C  0.70869531  0.38699031  0.74460060     0.04500
C3649       C  0.69857187  0.36358421  0.72630737    -0.07800
C3650       C  0.67105207  0.36537929  0.71408732    -0.08540
C3651       C  0.65165187  0.38661035  0.72491549    -0.03090
C3652       C  0.66131785  0.41100663  0.74185863     0.03730
N3653       N  0.64180800  0.43458290  0.75137620     0.66230
H3654       H  0.69797637  0.42984818  0.76345374     0.15130
H3655       H  0.66348193  0.34700609  0.70083901     0.14840
N3656       N  0.71495892  0.33653522  0.72200092     0.73940
O3657       O  0.64937679  0.45337966  0.77111397    -0.39510
O3658       O  0.61747109  0.43786308  0.73866184    -0.39460
O3659       O  0.72379360  0.32146664  0.74568494    -0.40160
O3660       O  0.71533072  0.32489864  0.69519813    -0.40230
C3661       C  0.99271120  0.01005298  0.73636697    -0.12510
C3662       C  0.99043518  0.02601415  0.76453889     0.04500
C3663       C  0.50676272  0.01513938  0.79107426    -0.07800
C3664       C  0.52328306  0.98828816  0.78914658    -0.08540
C3665       C  0.52515625  0.47229223  0.76101581    -0.03090
C3666       C  0.51010529  0.98400399  0.73423041     0.03730
N3667       N  0.01223635  0.46975212  0.70445664     0.66230
H3668       H  0.98152217  0.01835337  0.71532498     0.15130
H3669       H  0.53400185  0.97928057  0.81016267     0.14840
N3670       N  0.50574507  0.03008780  0.82063189     0.73940
O3671       O  0.99007774  0.46238069  0.69021857    -0.39510
O3672       O  0.53465166  0.47161121  0.68924801    -0.39460
O3673       O  0.98216217  0.03802223  0.83196961    -0.40160
O3674       O  0.52790911  0.03140947  0.83752805    -0.40230
C3675       C  0.88273192  0.27447223  0.73979936    -0.12510
C3676       C  0.85654457  0.28010688  0.75442927     0.04500
C3677       C  0.84781808  0.25910143  0.77640695    -0.07800
C3678       C  0.86529507  0.23360910  0.78306233    -0.08540
C3679       C  0.89074166  0.22735671  0.76718400    -0.03090
C3680       C  0.89995412  0.24890516  0.74609593     0.03730
N3681       N  0.92680939  0.24559914  0.73103785     0.66230
H3682       H  0.89057560  0.29057096  0.72378391     0.15130
H3683       H  0.85792560  0.21762585  0.79951852     0.14840
N3684       N  0.82089548  0.26244935  0.79122894     0.73940
O3685       O  0.92878687  0.25260165  0.70239331    -0.39510
O3686       O  0.94914305  0.24063055  0.74746192    -0.39460
O3687       O  0.79857572  0.26615138  0.77451529    -0.40160
O3688       O  0.81893929  0.25632063  0.82009614    -0.40230
C3689       C  0.72119648  0.50274053  0.73036653    -0.12510
C3690       C  0.72743202  0.51713067  0.75864149     0.04500
C3691       C  0.75224343  0.50779370  0.77603657    -0.07800
C3692       C  0.77062023  0.48571205  0.76399134    -0.08540
C3693       C  0.76442976  0.47120782  0.73575311    -0.03090
C3694       C  0.73943635  0.48027914  0.71849652     0.03730
N3695       N  0.73254303  0.46764429  0.68856168     0.66230
H3696       H  0.70283364  0.51023232  0.71622795     0.15130
H3697       H  0.78908535  0.47856955  0.77813499     0.14840
N3698       N  0.75893666  0.02004317  0.80624020     0.73940
O3699       O  0.70698748  0.46553107  0.68020672    -0.39510
O3700       O  0.75157660  0.46274866  0.66861048    -0.39460
O3701       O  0.73997979  0.02364623  0.82652588    -0.40160
O3702       O  0.78432859  0.02396410  0.81406659    -0.40230
C3703       C  0.65488511  0.23554101  0.73924266    -0.12510
C3704       C  0.64142423  0.21341224  0.75532504     0.04500
C3705       C  0.61518753  0.22122565  0.77001882    -0.07800
C3706       C  0.60389925  0.25033624  0.76866863    -0.08540
C3707       C  0.61744405  0.27219045  0.75269999    -0.03090
C3708       C  0.64335930  0.26473484  0.73826504     0.03730
N3709       N  0.65987079  0.28725081  0.72619135     0.66230
H3710       H  0.67508330  0.23044161  0.72846473     0.15130
H3711       H  0.58394782  0.25586042  0.77986819     0.14840
N3712       N  0.59910320  0.20016518  0.78598592     0.73940
O3713       O  0.66561104  0.30826470  0.74396070    -0.39510
O3714       O  0.67316001  0.28330129  0.70100779    -0.39460
O3715       O  0.59041624  0.20581149  0.81329592    -0.40160
O3716       O  0.58756160  0.18050153  0.77028626    -0.40230
C3717       C  0.78805654  0.14027389  0.72570690    -0.12510
C3718       C  0.78189377  0.11044540  0.72593933     0.04500
C3719       C  0.80390588  0.08856146  0.72301435    -0.07800
C3720       C  0.83185562  0.09708247  0.72440184    -0.08540
C3721       C  0.83785882  0.12677366  0.72821133    -0.03090
C3722       C  0.81576646  0.14870069  0.72692266     0.03730
N3723       N  0.82067796  0.17906025  0.73190578     0.66230
H3724       H  0.77112672  0.15718537  0.72784202     0.15130
H3725       H  0.84905189  0.08031166  0.72441295     0.14840
N3726       N  0.79851208  0.05784118  0.72168355     0.73940
O3727       O  0.80926540  0.19833857  0.71348382    -0.39510
O3728       O  0.83012478  0.18685520  0.75834584    -0.39460
O3729       O  0.78048477  0.04893925  0.70215999    -0.40160
O3730       O  0.81474646  0.03915402  0.73623038    -0.40230
C3731       C  0.57109398  0.13974178  0.71558476    -0.12510
C3732       C  0.58776962  0.11499483  0.72564986     0.04500
C3733       C  0.57439361  0.08887127  0.73380636    -0.07800
C3734       C  0.54489718  0.08891151  0.73315306    -0.08540
C3735       C  0.52846477  0.11482047  0.72723781    -0.03090
C3736       C  0.54169945  0.14070622  0.71806415     0.03730
N3737       N  0.52614121  0.16825886  0.71162686     0.66230
H3738       H  0.58107889  0.15971552  0.70920572     0.15130
H3739       H  0.53483175  0.06928454  0.74058292     0.14840
N3740       N  0.58987569  0.06266485  0.74483823     0.73940
O3741       O  0.53333713  0.18417556  0.68904448    -0.39510
O3742       O  0.50978687  0.17955628  0.73182606    -0.39460
O3743       O  0.59927613  0.06162099  0.77287467    -0.40160
O3744       O  0.58558376  0.03868948  0.73129685    -0.40230
C3745       C  0.54385566  0.34428062  0.88409510    -0.12510
C3746       C  0.53462803  0.32800925  0.85850203     0.04500
C3747       C  0.00797835  0.31532718  0.85994283    -0.07800
C3748       C  0.98984043  0.32302946  0.88490067    -0.08540
C3749       C  0.99727957  0.34379217  0.90744647    -0.03090
C3750       C  0.52526705  0.35396416  0.90750328     0.03730
N3751       N  0.53532232  0.37529281  0.92942823     0.66230
H3752       H  0.56438741  0.35361586  0.88330556     0.15130
H3753       H  0.96878864  0.31485738  0.88515130     0.14840
N3754       N  0.99854426  0.29604100  0.83556618     0.73940
O3755       O  0.56137907  0.37459501  0.93656935    -0.39510
O3756       O  0.02074207  0.39864603  0.93486854    -0.39460
O3757       O  0.01625645  0.28155049  0.81914033    -0.40160
O3758       O  0.97261196  0.29138560  0.83218424    -0.40230
C3759       C  0.51798586  0.34097418  0.58539070    -0.12510
C3760       C  0.98861889  0.34164452  0.58950410     0.04500
C3761       C  0.97848426  0.33743897  0.62010927    -0.07800
C3762       C  0.99766777  0.33631778  0.64590401    -0.08540
C3763       C  0.52702517  0.33790352  0.64238335    -0.03090
C3764       C  0.53762725  0.33874226  0.61113890     0.03730
N3765       N  0.56744353  0.33945500  0.60444765     0.66230
H3766       H  0.52564593  0.34464371  0.56205216     0.15130
H3767       H  0.98940623  0.33512813  0.66931525     0.14840
N3768       N  0.94873584  0.33503397  0.62545245     0.73940
O3769       O  0.57592244  0.33443073  0.57692085    -0.39510
O3770       O  0.58523019  0.34721754  0.62479427    -0.39460
O3771       O  0.93321713  0.32374699  0.60480743    -0.40160
O3772       O  0.93874762  0.34012458  0.65231777    -0.40230
C3773       C  0.82975025  0.40168167  0.87316769    -0.12510
C3774       C  0.83544499  0.42162022  0.84942220     0.04500
C3775       C  0.86226955  0.43414403  0.85021685    -0.07800
C3776       C  0.88319764  0.42400115  0.87291246    -0.08540
C3777       C  0.87872953  0.40031687  0.89332645    -0.03090
C3778       C  0.85124851  0.38903535  0.89312027     0.03730
N3779       N  0.84465420  0.36362224  0.91117159     0.66230
H3780       H  0.80927076  0.39237839  0.87299772     0.15130
H3781       H  0.90365159  0.43352498  0.87355096     0.14840
N3782       N  0.86848681  0.45699230  0.82822952     0.73940
O3783       O  0.82015568  0.36260995  0.92200831    -0.39510
O3784       O  0.85857934  0.33957219  0.90707629    -0.39460
O3785       O  0.84880519  0.47063357  0.81262771    -0.40160
O3786       O  0.89338347  0.46530658  0.82610429    -0.40230
C3787       C  0.84882383  0.40341193  0.58422329    -0.12510
C3788       C  0.87800304  0.40178609  0.59169316     0.04500
C3789       C  0.88708982  0.40745511  0.62269544    -0.07800
C3790       C  0.86690581  0.41071060  0.64610469    -0.08540
C3791       C  0.83757186  0.40922159  0.63972419    -0.03090
C3792       C  0.82824045  0.40816289  0.60775008     0.03730
N3793       N  0.79880562  0.41345997  0.59858566     0.66230
H3794       H  0.84220946  0.40109419  0.55984030     0.15130
H3795       H  0.87461635  0.41349958  0.67002052     0.14840
N3796       N  0.91662014  0.40947022  0.63106712     0.73940
O3797       O  0.78123285  0.42398571  0.61796485    -0.39510
O3798       O  0.79132951  0.41304202  0.56987763    -0.39460
O3799       O  0.92542765  0.40337731  0.65874960    -0.40160
O3800       O  0.93302683  0.42147009  0.61251698    -0.40230
C3801       C  0.73244800  0.36830775  0.88632095    -0.12510
C3802       C  0.73742992  0.34682054  0.90967998     0.04500
C3803       C  0.76124369  0.32614962  0.90584632    -0.07800
C3804       C  0.77895497  0.32897336  0.87904094    -0.08540
C3805       C  0.77344225  0.35088566  0.85572953    -0.03090
C3806       C  0.74929394  0.37039013  0.85996915     0.03730
N3807       N  0.74110545  0.39332380  0.83802199     0.66230
H3808       H  0.71480413  0.38436289  0.88847219     0.15130
H3809       H  0.79722089  0.31389635  0.87621225     0.14840
N3810       N  0.76870100  0.30294013  0.92845771     0.73940
O3811       O  0.72024471  0.38953092  0.81982721    -0.39510
O3812       O  0.74675895  0.41930427  0.84484835    -0.39460
O3813       O  0.75320932  0.29789729  0.95138815    -0.40160
O3814       O  0.79080121  0.28650366  0.92502392    -0.40230
C3815       C  0.79404767  0.33369767  0.61838461    -0.12510
C3816       C  0.78648389  0.32093594  0.64675818     0.04500
C3817       C  0.76070005  0.30629590  0.64719619    -0.07800
C3818       C  0.73973444  0.31315207  0.62348022    -0.08540
C3819       C  0.74587016  0.33072494  0.59754809    -0.03090
C3820       C  0.77437977  0.33698512  0.59322162     0.03730
N3821       N  0.78381913  0.34360089  0.56246523     0.66230
H3822       H  0.81475282  0.34241194  0.61631932     0.15130
H3823       H  0.71862115  0.30547926  0.62562524     0.14840
N3824       N  0.75577846  0.28472796  0.67122812     0.73940
O3825       O  0.80688954  0.35564565  0.55899346    -0.39510
O3826       O  0.77324753  0.33024014  0.53956451    -0.39460
O3827       O  0.73377962  0.27028839  0.66989155    -0.40160
O3828       O  0.77510387  0.27682870  0.69097119    -0.40230
C3829       C  0.64542752  0.39039553  0.88058148    -0.12510
C3830       C  0.63648649  0.40318194  0.90853722     0.04500
C3831       C  0.60993313  0.41931510  0.90868067    -0.07800
C3832       C  0.59156348  0.41869334  0.88181157    -0.08540
C3833       C  0.60010402  0.40381493  0.85440605    -0.03090
C3834       C  0.62795997  0.39029093  0.85403274     0.03730
N3835       N  0.63834539  0.37348733  0.82800422     0.66230
H3836       H  0.66563460  0.37796851  0.87999230     0.15130
H3837       H  0.57088520  0.43014250  0.88212304     0.14840
N3838       N  0.60186032  0.43708469  0.93505468     0.73940
O3839       O  0.65784939  0.38341102  0.81197709    -0.39510
O3840       O  0.63480849  0.34622262  0.82754506    -0.39460
O3841       O  0.61927567  0.45429152  0.94657486    -0.40160
O3842       O  0.57613493  0.44053262  0.94214338    -0.40230
C3843       C  0.62305458  0.41752011  0.65521008    -0.12510
C3844       C  0.59394888  0.41498112  0.64877131     0.04500
C3845       C  0.58484347  0.41315777  0.61702371    -0.07800
C3846       C  0.60525952  0.40703483  0.59388647    -0.08540
C3847       C  0.63441859  0.40596369  0.60110787    -0.03090
C3848       C  0.64343813  0.41351448  0.63164043     0.03730
N3849       N  0.67314458  0.41474087  0.63942593     0.66230
H3850       H  0.63000047  0.42086695  0.67918826     0.15130
H3851       H  0.59836781  0.40087723  0.57065544     0.14840
N3852       N  0.55521817  0.41501445  0.60840860     0.73940
O3853       O  0.68207366  0.41085898  0.66740200    -0.39510
O3854       O  0.69040062  0.42167315  0.61877293    -0.39300
O3855       O  0.53843004  0.43271086  0.62247566    -0.40160
O3856       O  0.54661232  0.40301654  0.58357546    -0.40230
C3857       C  0.82547269  0.40323228  0.98060730    -0.12510
C3858       C  0.83764230  0.37578914  0.49009356     0.04500
C3859       C  0.82086001  0.35114180  0.49060848    -0.07800
C3860       C  0.79207111  0.35502271  0.48334481    -0.08540
C3861       C  0.77941256  0.38296982  0.97795688    -0.03090
C3862       C  0.79639742  0.40703632  0.97401639     0.03730
N3863       N  0.78486093  0.43476450  0.96203668     0.66230
H3864       H  0.83887498  0.42153765  0.97767084     0.15130
H3865       H  0.77900349  0.33634833  0.48417021     0.14840
N3866       N  0.83237045  0.32217321  0.49848153     0.73940
O3867       O  0.79845928  0.45753954  0.96606127    -0.39510
O3868       O  0.76491025  0.43540945  0.94179607    -0.39460
O3869       O  0.84309325  0.31724373  0.52557957    -0.40160
O3870       O  0.82518958  0.30066255  0.48214567    -0.40230
C3871       C  0.57179722  0.34669653  0.99871895    -0.12510
C3872       C  0.58995080  0.36951290  0.00377655     0.04500
C3873       C  0.57832066  0.39825853  0.51051398    -0.07800
C3874       C  0.54880711  0.40266185  0.51262996    -0.08540
C3875       C  0.53073571  0.37981777  0.50719505    -0.03090
C3876       C  0.54250599  0.35143231  0.99973625     0.03730
N3877       N  0.52536574  0.32724098  0.99229061     0.66230
H3878       H  0.58048402  0.32465055  0.99399922     0.15130
H3879       H  0.53967316  0.42457625  0.51702435     0.14840
N3880       N  0.59544948  0.42332197  0.51456065     0.73940
O3881       O  0.53225400  0.31006208  0.97018012    -0.39510
O3882       O  0.00663459  0.31990337  0.51092823    -0.39460
O3883       O  0.61925914  0.42420846  0.00202671    -0.40160
O3884       O  0.58560030  0.44605440  0.52832701    -0.40230
C3885       C  0.76528494  0.16191177  0.87482970    -0.12510
C3886       C  0.75499268  0.15904480  0.90518646     0.04500
C3887       C  0.72528762  0.16345901  0.90899146    -0.07800
C3888       C  0.70676461  0.16282817  0.88212951    -0.08540
C3889       C  0.71730066  0.16284432  0.85148560    -0.03090
C3890       C  0.74700938  0.16611021  0.84845479     0.03730
N3891       N  0.75917392  0.17267713  0.81865971     0.66230
H3892       H  0.78796926  0.16048484  0.87158652     0.15130
H3893       H  0.68412890  0.16242720  0.88508148     0.14840
N3894       N  0.71384525  0.17085103  0.93908531     0.73940
O3895       O  0.74799420  0.19309529  0.80148522    -0.39510
O3896       O  0.78307123  0.16118286  0.81155481    -0.39460
O3897       O  0.72927628  0.18231727  0.95969899    -0.40160
O3898       O  0.68736607  0.17268483  0.94234789    -0.40230
C3899       C  0.72801857  0.16169692  0.59161450    -0.12510
C3900       C  0.75712713  0.15367479  0.59565047     0.04500
C3901       C  0.76755522  0.14818930  0.62648036    -0.07800
C3902       C  0.74879433  0.14703934  0.65153641    -0.08540
C3903       C  0.71939192  0.15241260  0.64737588    -0.03090
C3904       C  0.70919417  0.16154620  0.61715110     0.03730
N3905       N  0.67976153  0.16897943  0.61147442     0.66230
H3906       H  0.71945304  0.16606553  0.56826521     0.15130
H3907       H  0.75727346  0.14099095  0.67446882     0.14840
N3908       N  0.79730768  0.14325811  0.63242979     0.73940
O3909       O  0.67190078  0.19428556  0.60124696    -0.39510
O3910       O  0.66169049  0.14998819  0.61523087    -0.39460
O3911       O  0.81401199  0.16079888  0.62084036    -0.40160
O3912       O  0.80658423  0.12422824  0.65239028    -0.40230
C3913       C  0.89479036  0.09348822  0.90759760    -0.12510
C3914       C  0.86592463  0.09317707  0.89924681     0.04500
C3915       C  0.85776295  0.08482776  0.86872552    -0.07800
C3916       C  0.87869842  0.07930292  0.84657517    -0.08540
C3917       C  0.90756183  0.08336464  0.85341484    -0.03090
C3918       C  0.91595773  0.08840503  0.88505552     0.03730
N3919       N  0.94535398  0.08804491  0.89468419     0.66230
H3920       H  0.90073605  0.09804616  0.93177069     0.15130
H3921       H  0.87188595  0.07396220  0.82288267     0.14840
N3922       N  0.82843267  0.08373200  0.85912397     0.73940
O3923       O  0.95265352  0.10006424  0.92004242    -0.39510
O3924       O  0.96335267  0.07139980  0.88107056    -0.39460
O3925       O  0.82062451  0.09079826  0.83134220    -0.40160
O3926       O  0.81067487  0.07343039  0.87731380    -0.40230
C3927       C  0.86789933  0.12855175  0.60366534    -0.12510
C3928       C  0.86224434  0.10305335  0.58746799     0.04500
C3929       C  0.87366229  0.07559069  0.59949054    -0.07800
C3930       C  0.88920271  0.07492563  0.62858665    -0.08540
C3931       C  0.89264281  0.10084072  0.64595496    -0.03090
C3932       C  0.88089663  0.12788083  0.63298549     0.03730
N3933       N  0.87901647  0.15492627  0.65007799     0.66230
H3934       H  0.85993674  0.14982818  0.59471122     0.15130
H3935       H  0.89852038  0.05423025  0.63769056     0.14840
N3936       N  0.87105790  0.04881912  0.58210795     0.73940
O3937       O  0.88794203  0.17776635  0.63764132    -0.39510
O3938       O  0.86024597  0.15805066  0.67054344    -0.39460
O3939       O  0.87066449  0.04926404  0.55238259    -0.40160
O3940       O  0.87297000  0.02426887  0.59622627    -0.40230
C3941       C  0.76039197  0.51060896  0.53596007    -0.12510
C3942       C  0.76936612  0.01966441  0.50625595     0.04500
C3943       C  0.75758863  0.00696828  0.97894695    -0.07800
C3944       C  0.73808745  0.48514756  0.98229063    -0.08540
C3945       C  0.73095061  0.47439679  0.01198914    -0.03090
C3946       C  0.74145095  0.48825109  0.53910100     0.03730
N3947       N  0.73147657  0.48165177  0.56974233     0.66230
H3948       H  0.76775051  0.52143781  0.55700959     0.15130
H3949       H  0.72944195  0.97555494  0.96118248     0.14840
N3950       N  0.76460703  0.01599135  0.94766332     0.73940
O3951       O  0.74220672  0.45968974  0.58482810    -0.39510
O3952       O  0.71664040  0.50092577  0.58412674    -0.39460
O3953       O  0.79004909  0.01428573  0.93927718    -0.40160
O3954       O  0.74538896  0.01883973  0.92661276    -0.40230
C3955       C  0.86272467  0.24217603  0.96266510    -0.12510
C3956       C  0.85265065  0.22861920  0.48976933     0.04500
C3957       C  0.86216068  0.23845112  0.51954337    -0.07800
C3958       C  0.88034735  0.26150545  0.52155023    -0.08540
C3959       C  0.88997034  0.27568483  0.49465382    -0.03090
C3960       C  0.88167225  0.26507209  0.96463611     0.03730
N3961       N  0.89292679  0.27623425  0.93607370     0.66230
H3962       H  0.85666918  0.23411707  0.93969583     0.15130
H3963       H  0.88650512  0.26869880  0.54484638     0.14840
N3964       N  0.85461297  0.22464839  0.54829405     0.73940
O3965       O  0.91910657  0.27977012  0.93435304    -0.39510
O3966       O  0.87798994  0.27719364  0.41105529    -0.39460
O3967       O  0.86753561  0.20083359  0.05687706    -0.40160
O3968       O  0.84028088  0.23927973  0.56809196    -0.40230
C3969       C  0.98340148  0.17097474  0.90715806    -0.12510
C3970       C  0.50552407  0.14899833  0.90505550     0.04500
C3971       C  0.50963085  0.13422182  0.87641656    -0.07800
C3972       C  0.49160229  0.14105081  0.85117881    -0.08540
C3973       C  0.96792034  0.16080516  0.85362095    -0.03090
C3974       C  0.96397222  0.17692527  0.88171745     0.03730
N3975       N  0.94151374  0.19954071  0.88464080     0.66230
H3976       H  0.98096163  0.18296300  0.92895117     0.15130
H3977       H  0.49565002  0.12922312  0.82959664     0.14840
N3978       N  0.53211757  0.11225851  0.87202075     0.73940
O3979       O  0.93844363  0.21327437  0.91018354    -0.39510
O3980       O  0.92561599  0.20719147  0.86142658    -0.39460
O3981       O  0.52978539  0.08674031  0.88311167    -0.40160
O3982       O  0.54885104  0.11545590  0.84969689    -0.40230
C3983       C  0.00904556  0.16101473  0.61428973    -0.12510
C3984       C  0.52911256  0.13701204  0.61493385     0.04500
C3985       C  0.53002599  0.11730471  0.64006299    -0.07800
C3986       C  0.50743335  0.11748685  0.65979893    -0.08540
C3987       C  0.98757320  0.14159743  0.66113914    -0.03090
C3988       C  0.98854598  0.16425583  0.63802369     0.03730
N3989       N  0.96784547  0.18865652  0.63614005     0.66230
H3990       H  0.00815627  0.17596233  0.59430237     0.15130
H3991       H  0.50644920  0.09868560  0.67512377     0.14840
N3992       N  0.55391439  0.09690366  0.64540912     0.73940
O3993       O  0.97295684  0.21158986  0.62090248    -0.39510
O3994       O  0.94334216  0.18634452  0.64651932    -0.39460
O3995       O  0.57851606  0.10582035  0.64276815    -0.40160
O3996       O  0.55084240  0.07214908  0.65803854    -0.40230
C3997       C  0.65466277  0.06632190  0.88390163    -0.12510
C3998       C  0.65198808  0.08596540  0.85799012     0.04500
C3999       C  0.62828772  0.10638112  0.85747381    -0.07800
C4000       C  0.61076785  0.10926705  0.88305183    -0.08540
C4001       C  0.61373040  0.09148018  0.91007527    -0.03090
C4002       C  0.63519395  0.06774561  0.90948609     0.03730
N4003       N  0.63804008  0.04498830  0.93344562     0.66230
H4004       H  0.67163581  0.04935588  0.88382610     0.15130
H4005       H  0.59389203  0.12629121  0.88105537     0.14840
N4006       N  0.62049783  0.12454431  0.83080955     0.73940
O4007       O  0.65201353  0.02117055  0.92801591    -0.39510
O4008       O  0.62745933  0.04837874  0.96022325    -0.39460
O4009       O  0.60444221  0.11426311  0.81007301    -0.40160
O4010       O  0.61979090  0.15208927  0.83425062    -0.40230
C4011       C  0.67376468  0.07877512  0.61718628    -0.12510
C4012       C  0.66174668  0.06947136  0.64509352     0.04500
C4013       C  0.63434509  0.05836695  0.64355333    -0.07800
C4014       C  0.61800909  0.06209027  0.61526864    -0.08540
C4015       C  0.62852172  0.07631874  0.58895384    -0.03090
C4016       C  0.65765527  0.08163406  0.58897279     0.03730
N4017       N  0.67084974  0.09030907  0.56056187     0.66230
H4018       H  0.69524395  0.08585920  0.61792692     0.15130
H4019       H  0.59607701  0.05650245  0.61473056     0.14840
N4020       N  0.62273355  0.04379515  0.67019856     0.73940
O4021       O  0.69392886  0.10290086  0.56177678    -0.39510
O4022       O  0.66244402  0.08031656  0.53458006    -0.39460
O4023       O  0.63745833  0.03863941  0.69496792    -0.40160
O4024       O  0.59924369  0.03215059  0.66739682    -0.40230
C4025       C  0.51080030  0.50700981  0.96720893    -0.12510
C4026       C  0.51205040  0.02319277  0.49538732     0.04500
C4027       C  0.99397211  0.01561378  0.52002843    -0.07800
C4028       C  0.97477188  0.99334446  0.51518196    -0.08540
C4029       C  0.97330811  0.47773910  0.48672023    -0.03090
C4030       C  0.99158632  0.48506958  0.96232995     0.03730
N4031       N  0.99053468  0.47113514  0.93207366     0.66230
H4032       H  0.52418988  0.51227950  0.94785128     0.15130
H4033       H  0.96177171  0.98721289  0.53456391     0.14840
N4034       N  0.99488595  0.02953606  0.55022687     0.73940
O4035       O  0.51305406  0.46547603  0.91735092    -0.39510
O4036       O  0.96703116  0.46842269  0.41807660    -0.39460
O4037       O  0.97224165  0.03432179  0.06498384    -0.40160
O4038       O  0.01818701  0.03048093  0.56510231    -0.40230
C4039       C  0.95247545  0.13929752  0.98350831    -0.12510
C4040       C  0.96554455  0.12838742  0.01132270     0.04500
C4041       C  0.94886963  0.12517727  0.53853491    -0.07800
C4042       C  0.91932834  0.13121681  0.53607318    -0.08540
C4043       C  0.90626849  0.14049128  0.00755534    -0.03090
C4044       C  0.92339859  0.14628220  0.98159581     0.03730
N4045       N  0.91167219  0.16034699  0.95352492     0.66230
H4046       H  0.96520412  0.14308967  0.96320283     0.15130
H4047       H  0.90638622  0.12711846  0.55603622     0.14840
N4048       N  0.96087065  0.11449954  0.56819642     0.73940
O4049       O  0.89598075  0.18352527  0.95558787    -0.39510
O4050       O  0.92029178  0.15247773  0.92684302    -0.39460
O4051       O  0.98059493  0.09468830  0.56906754    -0.40160
O4052       O  0.94910229  0.12180372  0.59358923    -0.40230
C4053       C  0.66759231  0.10839425  0.97011316    -0.12510
C4054       C  0.65745133  0.13150620  0.48860749     0.04500
C4055       C  0.67604753  0.14821750  0.50621830    -0.07800
C4056       C  0.70487315  0.14175748  0.50392164    -0.08540
C4057       C  0.71523052  0.11818269  0.48560584    -0.03090
C4058       C  0.69626809  0.10113184  0.96875470     0.03730
N4059       N  0.70538550  0.07527851  0.95212001     0.66230
H4060       H  0.65306434  0.09522331  0.95800790     0.15130
H4061       H  0.71924449  0.15491067  0.51702532     0.14840
N4062       N  0.66622158  0.17004941  0.52813997     0.73940
O4063       O  0.71204960  0.07721279  0.42362301    -0.39510
O4064       O  0.70227993  0.05032861  0.96425726    -0.39460
O4065       O  0.64885016  0.16330439  0.54863586    -0.40160
O4066       O  0.67965151  0.19296408  0.03198764    -0.40230
C4067       C  0.61543537  0.26834173  0.53845761    -0.12510
C4068       C  0.63985388  0.26777212  0.01971481     0.04500
C4069       C  0.64432663  0.24421488  0.99867816    -0.07800
C4070       C  0.62477481  0.22229924  0.99699605    -0.08540
C4071       C  0.60126530  0.22205585  0.01667140    -0.03090
C4072       C  0.59607397  0.24582004  0.53732575     0.03730
N4073       N  0.57116504  0.24814200  0.55635625     0.66230
H4074       H  0.61115789  0.28671118  0.55402110     0.15130
H4075       H  0.62890053  0.20466408  0.98068161     0.14840
N4076       N  0.66885704  0.24157145  0.97936301     0.73940
O4077       O  0.56176627  0.27297759  0.56579974    -0.39510
O4078       O  0.55817109  0.22570226  0.06363715    -0.39460
O4079       O  0.69330305  0.24195112  0.49180814    -0.40160
O4080       O  0.66633074  0.23430688  0.95085878    -0.40230
O4081       O  0.59553816  0.67315107  0.03303312    -0.80380
O4082       O  0.50668821  0.60741540  0.48689039    -0.80400
O4083       O  0.53357753  0.66222595  0.44940872    -0.80410
O4084       O  0.54218789  0.59966680  0.07923213    -0.80350
O4085       O  0.53352289  0.61507116  0.43641097    -0.80470
O4086       O  0.55438636  0.64466915  0.06723452    -0.80390
O4087       O  0.51237872  0.62634104  0.03285862    -0.80380
O4088       O  0.56599779  0.69150464  0.49594506    -0.80420
C4089       C  0.58525381  0.69496262  0.51670677     1.09310
C4090       C  0.99629891  0.62049678  0.51042353     1.09200
C4091       C  0.52471491  0.64182905  0.43207663     1.09330
C4092       C  0.54319974  0.62679983  0.08646655     1.09210
O4093       O  0.60896661  0.62242254  0.07059132    -0.80380
O4094       O  0.58601639  0.58592640  0.45880017    -0.80460
O4095       O  0.61391311  0.65658903  0.47813134    -0.80390
O4096       O  0.53366040  0.56589105  0.02036691    -0.80370
O4097       O  0.53548407  0.55957745  0.46783429    -0.80420
O4098       O  0.61528278  0.61733001  0.00826102    -0.80390
O4099       O  0.58977903  0.58405682  0.04901610    -0.80350
O4100       O  0.58434346  0.62857848  0.43408135    -0.80420
Co4101     Co  0.58449787  0.63110452  0.03529542     1.51530
Co4102     Co  0.54761785  0.59664171  0.47676151     1.51690
Co4103     Co  0.57313646  0.65872483  0.46619456     1.51570
Co4104     Co  0.55055670  0.60619821  0.03672101     1.51470
O4105       O  0.56004968  0.62982042  0.99797455    -1.42310
C4106       C  0.60827668  0.59467233  0.06853113     1.09240
C4107       C  0.59425765  0.60192729  0.43639095     1.09330
C4108       C  0.62740396  0.63533949  0.99164735     1.09270
C4109       C  0.52859717  0.55042104  0.99492512     1.09240
O4110       O  0.77767772  0.56758238  0.02291616    -0.80380
O4111       O  0.86498227  0.63536412  0.47672263    -0.80400
O4112       O  0.83338708  0.58103389  0.43754508    -0.80410
O4113       O  0.84092871  0.63337778  0.04642114    -0.80350
O4114       O  0.83699734  0.62869159  0.42645188    -0.80470
O4115       O  0.82496349  0.58913671  0.05192127    -0.80390
O4116       O  0.85705752  0.64688741  0.02453947    -0.80380
O4117       O  0.80223394  0.55096858  0.48261883    -0.80420
C4118       C  0.78499368  0.54682794  0.00449560     1.09310
C4119       C  0.87506559  0.64115450  0.00308904     1.09200
C4120       C  0.84460229  0.60148768  0.42255849     1.09330
C4121       C  0.84211048  0.60786190  0.06039555     1.09210
O4122       O  0.77283384  0.61378371  0.06435759    -0.80380
O4123       O  0.78500158  0.65784130  0.45295771    -0.80460
O4124       O  0.75601750  0.59062362  0.46982159    -0.80390
O4125       O  0.82415167  0.69153224  0.01144715    -0.80370
O4126       O  0.83621356  0.68657053  0.46126718    -0.80420
O4127       O  0.76095337  0.62593816  0.00388667    -0.80390
O4128       O  0.78877839  0.65692992  0.05016298    -0.80350
O4129       O  0.78418009  0.61838452  0.42399951    -0.80420
Co4130     Co  0.79302683  0.60711597  0.02698376     1.51530
Co4131     Co  0.82486729  0.64569447  0.46797663     1.51690
Co4132     Co  0.79530199  0.58626001  0.45530376     1.51570
Co4133     Co  0.81502661  0.64962471  0.01009620     1.51470
O4134       O  0.81413635  0.60908322  0.98982779    -1.42310
C4135       C  0.77374358  0.64119418  0.06871290     1.09240
C4136       C  0.77494019  0.64450731  0.42940056     1.09330
C4137       C  0.74556682  0.61139716  0.98607731     1.09270
C4138       C  0.83602539  0.70172167  0.48692767     1.09240
O4139       O  0.65172757  0.81454202  0.03883605    -0.80380
O4140       O  0.73000347  0.89389092  0.46697397    -0.80400
O4141       O  0.70594699  0.82791007  0.44918769    -0.80410
O4142       O  0.72430434  0.87143016  0.06847558    -0.80350
O4143       O  0.71217428  0.87686596  0.44777906    -0.80470
O4144       O  0.70300541  0.83028079  0.06508113    -0.80390
O4145       O  0.74282362  0.88133319  0.01409856    -0.80380
O4146       O  0.67491893  0.79805744  0.49760095    -0.80420
C4147       C  0.65738621  0.79408478  0.51939881     1.09310
C4148       C  0.74986256  0.88717432  0.48660427     1.09200
C4149       C  0.71765099  0.84998091  0.43725228     1.09330
C4150       C  0.72317881  0.84451495  0.07612275     1.09210
O4151       O  0.65400569  0.86110606  0.08212161    -0.80380
O4152       O  0.66220348  0.90863648  0.45757735    -0.80460
O4153       O  0.62974066  0.84036530  0.48654282    -0.80390
O4154       O  0.71734070  0.93030169  0.03820196    -0.80370
O4155       O  0.70385153  0.93727282  0.48797556    -0.80420
O4156       O  0.63684008  0.87347322  0.02261043    -0.80390
O4157       O  0.66836836  0.90186286  0.05849736    -0.80350
O4158       O  0.65776083  0.86445483  0.43851678    -0.80420
Co4159     Co  0.67029586  0.85244072  0.04319098     1.51530
Co4160     Co  0.69288849  0.89583440  0.48834527     1.51690
Co4161     Co  0.66890292  0.83372368  0.47050016     1.51570
Co4162     Co  0.70438528  0.89044873  0.03089678     1.51470
O4163       O  0.68955473  0.85554848  0.50537847    -1.42310
C4164       C  0.65388712  0.88903542  0.08018442     1.09240
C4165       C  0.65238801  0.89195491  0.43706581     1.09330
C4166       C  0.62051399  0.86133587  0.50366966     1.09270
C4167       C  0.71583097  0.94668520  0.51328533     1.09240
O4168       O  0.93929473  0.94542266  0.00634552    -0.80380
O4169       O  0.88267787  0.88278012  0.47163338    -0.80400
O4170       O  0.91630484  0.90533109  0.43374876    -0.80410
O4171       O  0.90739658  0.86699811  0.06361680    -0.80350
O4172       O  0.90578688  0.86073043  0.41973198    -0.80470
O4173       O  0.90920672  0.91487124  0.05179306    -0.80390
O4174       O  0.88049290  0.85699151  0.01390805    -0.80380
O4175       O  0.96488677  0.93014997  0.46677039    -0.80420
C4176       C  0.95716181  0.95046790  0.48550377     1.09310
C4177       C  0.86835647  0.87223160  0.99254171     1.09200
C4178       C  0.90210076  0.88838452  0.41527263     1.09330
C4179       C  0.89884144  0.89406388  0.06727036     1.09210
O4180       O  0.95982182  0.88100249  0.06776935    -0.80380
O4181       O  0.95851978  0.84495075  0.44531331    -0.80460
O4182       O  0.98570549  0.87365576  0.48516046    -0.80390
O4183       O  0.91198585  0.81030762  0.02788296    -0.80370
O4184       O  0.90758423  0.82204982  0.47603326    -0.80420
O4185       O  0.98860449  0.90776234  0.02137219    -0.80390
O4186       O  0.96091404  0.83979778  0.04087459    -0.80350
O4187       O  0.97065809  0.88606229  0.42358827    -0.80420
Co4188     Co  0.94804265  0.91141954  0.03488625     1.51530
Co4189     Co  0.92019399  0.86444810  0.46200724     1.51690
Co4190     Co  0.95122732  0.88970974  0.46208519     1.51570
Co4191     Co  0.92192078  0.84924828  0.02308320     1.51470
O4192       O  0.93248046  0.88401370  0.00252015    -1.42310
C4193       C  0.96922541  0.85459780  0.06428164     1.09240
C4194       C  0.97433866  0.85848620  0.42583543     1.09330
C4195       C  0.00000337  0.88717699  0.00504425     1.09270
C4196       C  0.90492166  0.80353722  0.99955733     1.09240
O4197       O  0.71135706  0.62466470  0.19386073    -0.80380
O4198       O  0.67498709  0.64380365  0.32413879    -0.80400
O4199       O  0.67573674  0.67469794  0.23975855    -0.80410
O4200       O  0.74396469  0.62019922  0.25868361    -0.80350
O4201       O  0.64216315  0.66366919  0.27206593    -0.80470
O4202       O  0.73986516  0.58353318  0.22680215    -0.80390
O4203       O  0.71319779  0.64850789  0.29904862    -0.80380
O4204       O  0.67558326  0.65490771  0.17764396    -0.80420
C4205       C  0.70081155  0.64418984  0.17398083     1.09310
C4206       C  0.69987555  0.65358320  0.32329219     1.09200
C4207       C  0.65446004  0.68263031  0.25626292     1.09330
C4208       C  0.75405023  0.60394645  0.23753126     1.09210
O4209       O  0.69158395  0.55494139  0.24732983    -0.80380
O4210       O  0.62970681  0.60430917  0.25475716    -0.80460
O4211       O  0.66280704  0.59919653  0.19121036    -0.80390
O4212       O  0.69605912  0.59375381  0.33012516    -0.80370
O4213       O  0.65932762  0.58320937  0.30361179    -0.80420
O4214       O  0.69954006  0.56789888  0.18411036    -0.80390
O4215       O  0.72590477  0.56448079  0.28113219    -0.80350
O4216       O  0.63134166  0.63886141  0.21921787    -0.80420
Co4217     Co  0.69787192  0.59026702  0.22209924     1.51530
Co4218     Co  0.65281715  0.62299857  0.28703716     1.51690
Co4219     Co  0.67385899  0.63596988  0.21825273     1.51570
Co4220     Co  0.71838284  0.60713122  0.29051072     1.51470
O4221       O  0.68586824  0.61474276  0.25902611    -1.42310
C4222       C  0.71278037  0.54620875  0.26450252     1.09240
C4223       C  0.61792529  0.61902173  0.23263002     1.09330
C4224       C  0.67536778  0.57849309  0.17510088     1.09270
C4225       C  0.67112831  0.58428456  0.32987649     1.09240
O4226       O  0.90966130  0.62589386  0.19031771    -0.80380
O4227       O  0.94871893  0.60163019  0.32790628    -0.80400
O4228       O  0.95305176  0.55934254  0.24408650    -0.80410
O4229       O  0.87853400  0.61642024  0.25856620    -0.80350
O4230       O  0.98150333  0.57612991  0.28122680    -0.80470
O4231       O  0.87797023  0.65641516  0.23093540    -0.80390
O4232       O  0.91284609  0.59189388  0.29985943    -0.80380
O4233       O  0.92300429  0.57866522  0.18883090    -0.80420
C4234       C  0.90893592  0.60095334  0.17653009     1.09310
C4235       C  0.92524523  0.58971471  0.32583231     1.09200
C4236       C  0.97345526  0.55514821  0.26403318     1.09330
C4237       C  0.86634397  0.63333178  0.23886088     1.09210
O4238       O  0.92487413  0.68967677  0.25134708    -0.80380
O4239       O  0.49239108  0.63267404  0.25828961    -0.80460
O4240       O  0.96140982  0.61344166  0.19513100    -0.80390
O4241       O  0.92449576  0.65021641  0.32787796    -0.80370
O4242       O  0.95991279  0.66002339  0.29996346    -0.80420
O4243       O  0.95665203  0.66125514  0.20228927    -0.80390
O4244       O  0.89091190  0.67620685  0.28188764    -0.80350
O4245       O  0.47994835  0.59910214  0.22330752    -0.80420
Co4246     Co  0.91961024  0.65673902  0.22265411     1.51530
Co4247     Co  0.96894570  0.61877616  0.28988441     1.51690
Co4248     Co  0.93516819  0.59758179  0.22765077     1.51570
Co4249     Co  0.90281523  0.63305138  0.29037134     1.51470
O4250       O  0.93486722  0.62773082  0.25955121    -1.42310
C4251       C  0.90383924  0.69656320  0.26826501     1.09240
C4252       C  0.49888149  0.61531155  0.23670463     1.09330
C4253       C  0.96632370  0.63966845  0.18616487     1.09270
C4254       C  0.94846261  0.66121090  0.32601669     1.09240
O4255       O  0.53334954  0.86146393  0.19225025    -0.80380
O4256       O  0.57303727  0.84268365  0.32726014    -0.80400
O4257       O  0.60080093  0.81748662  0.22762565    -0.80410
O4258       O  0.00599224  0.86492225  0.25835604    -0.80350
O4259       O  0.59712269  0.81360556  0.27876686    -0.80470
O4260       O  0.00689664  0.90108800  0.22482909    -0.80390
O4261       O  0.53260808  0.83872180  0.30445311    -0.80380
O4262       O  0.56814528  0.83133274  0.17788747    -0.80420
C4263       C  0.54401444  0.84355021  0.17175877     1.09310
C4264       C  0.54814780  0.83400848  0.32810501     1.09200
C4265       C  0.60455237  0.80270598  0.25286906     1.09330
C4266       C  0.99333238  0.88157968  0.23875663     1.09210
O4267       O  0.55618174  0.93147836  0.24371112    -0.80380
O4268       O  0.62384929  0.86602598  0.26093717    -0.80460
O4269       O  0.58742611  0.88186746  0.19180076    -0.80390
O4270       O  0.55507826  0.89502042  0.32757289    -0.80370
O4271       O  0.59300868  0.89729839  0.30062896    -0.80420
O4272       O  0.55179987  0.91492084  0.18106497    -0.80390
O4273       O  0.52338208  0.92270968  0.27812711    -0.80350
O4274       O  0.60461947  0.87149962  0.21286625    -0.80420
Co4275     Co  0.54956737  0.89436781  0.22071685     1.51530
Co4276     Co  0.59484614  0.85594055  0.28946147     1.51690
Co4277     Co  0.56946011  0.84849527  0.21937485     1.51570
Co4278     Co  0.53052218  0.87980176  0.29032053     1.51470
O4279       O  0.56181996  0.86937746  0.25991353    -1.42310
C4280       C  0.53656486  0.94083323  0.26176458     1.09240
C4281       C  0.62487062  0.87472123  0.23311423     1.09330
C4282       C  0.57639484  0.90397776  0.17467336     1.09270
C4283       C  0.58105891  0.90128833  0.32613965     1.09240
O4284       O  0.83136522  0.90652196  0.19415186    -0.80380
O4285       O  0.79435184  0.92479744  0.31289773    -0.80400
O4286       O  0.76734902  0.92300209  0.21435315    -0.80410
O4287       O  0.86533209  0.85665256  0.27981321    -0.80350
O4288       O  0.80103939  0.93490324  0.24780846    -0.80470
O4289       O  0.86050238  0.89039713  0.24399117    -0.80390
O4290       O  0.83268307  0.89912145  0.29994026    -0.80380
O4291       O  0.79622330  0.89225200  0.16709222    -0.80420
C4292       C  0.81957405  0.90476935  0.16783433     1.09310
C4293       C  0.82003250  0.91650567  0.31915020     1.09200
C4294       C  0.77987094  0.94243830  0.23016671     1.09330
C4295       C  0.87638186  0.87576491  0.26254630     1.09210
O4296       O  0.85308217  0.82789722  0.23093765    -0.80380
O4297       O  0.75108716  0.90744278  0.26749396    -0.80460
O4298       O  0.78241102  0.83767597  0.19829725    -0.80390
O4299       O  0.81846179  0.84608414  0.32598888    -0.80370
O4300       O  0.78083348  0.86778532  0.30308815    -0.80420
O4301       O  0.82296639  0.84441266  0.17695677    -0.80390
O4302       O  0.82084210  0.81847437  0.26613574    -0.80350
O4303       O  0.75496868  0.86698745  0.24261787    -0.80420
Co4304     Co  0.84128051  0.86800186  0.21267284     1.51530
Co4305     Co  0.79393698  0.90111682  0.27462383     1.51690
Co4306     Co  0.77594474  0.87943289  0.20714549     1.51570
Co4307     Co  0.82215167  0.85903582  0.28190036     1.51470
O4308       O  0.80793230  0.87488285  0.23905520    -1.42310
C4309       C  0.84172425  0.80983984  0.24943406     1.09240
C4310       C  0.73909149  0.88680496  0.25357068     1.09330
C4311       C  0.79910403  0.83244323  0.17634196     1.09270
C4312       C  0.79217988  0.85454785  0.32738434     1.09240
C4313       C  0.94525202  0.90449722  0.23546969    -0.12510
C4314       C  0.96263506  0.87879923  0.23673318     0.04500
C4315       C  0.95126336  0.85189999  0.24634393    -0.07800
C4316       C  0.92383211  0.85233762  0.25790566    -0.08540
C4317       C  0.90682747  0.87831699  0.25822590    -0.03090
C4318       C  0.91738390  0.90467739  0.24580358     0.03730
N4319       N  0.90034145  0.93186917  0.24365660     0.66230
H4320       H  0.95399396  0.92502799  0.22861599     0.15130
H4321       H  0.91508271  0.83188237  0.26499846     0.14840
N4322       N  0.96751237  0.82412396  0.24529975     0.73940
O4323       O  0.90414695  0.95006163  0.22179298    -0.39510
O4324       O  0.88319503  0.93900362  0.26494924    -0.39460
O4325       O  0.98630586  0.81963736  0.22501381    -0.40160
O4326       O  0.96154812  0.80306736  0.26298401    -0.40230
C4327       C  0.69019257  0.91130566  0.25072541    -0.12510
C4328       C  0.70869534  0.88699031  0.24460057     0.04500
C4329       C  0.69857191  0.86358424  0.22630731    -0.07800
C4330       C  0.67105209  0.86537932  0.21408728    -0.08540
C4331       C  0.65165190  0.88661036  0.22491548    -0.03090
C4332       C  0.66131789  0.91100664  0.24185864     0.03730
N4333       N  0.64180804  0.93458290  0.25137623     0.66230
H4334       H  0.69797640  0.92984816  0.26345377     0.15130
H4335       H  0.66348195  0.84700613  0.20083896     0.14840
N4336       N  0.71495895  0.83653525  0.22200082     0.73940
O4337       O  0.64937682  0.95337964  0.27111402    -0.39510
O4338       O  0.61747112  0.93786309  0.23866187    -0.39460
O4339       O  0.72379363  0.82146664  0.24568481    -0.40160
O4340       O  0.71533073  0.82489870  0.19519801    -0.40230
C4341       C  0.99271114  0.51005293  0.23636696    -0.12510
C4342       C  0.99043521  0.52601414  0.26453885     0.04500
C4343       C  0.50676287  0.51513943  0.29107417    -0.07800
C4344       C  0.52328320  0.48828822  0.28914647    -0.08540
C4345       C  0.52515631  0.97229226  0.26101573    -0.03090
C4346       C  0.51010522  0.48400394  0.23423037     0.03730
N4347       N  0.01223625  0.96975206  0.20445660     0.66230
H4348       H  0.98152204  0.51835329  0.21532499     0.15130
H4349       H  0.53400208  0.47928067  0.31016253     0.14840
N4350       N  0.50574536  0.53008792  0.32063176     0.73940
O4351       O  0.99007761  0.96238063  0.19021858    -0.39510
O4352       O  0.53465153  0.97161114  0.18924792    -0.39460
O4353       O  0.98216250  0.53802234  0.33196962    -0.40160
O4354       O  0.52790950  0.53140966  0.33752776    -0.40230
C4355       C  0.88273203  0.77447230  0.23979939    -0.12510
C4356       C  0.85654466  0.78010693  0.25442926     0.04500
C4357       C  0.84781816  0.75910145  0.27640690    -0.07800
C4358       C  0.86529515  0.73360912  0.28306228    -0.08540
C4359       C  0.89074175  0.72735674  0.26718397    -0.03090
C4360       C  0.89995423  0.74890521  0.24609594     0.03730
N4361       N  0.92680953  0.74559922  0.23103790     0.66230
H4362       H  0.89057573  0.79057105  0.22378398     0.15130
H4363       H  0.85792567  0.71762586  0.29951844     0.14840
N4364       N  0.82089553  0.76244933  0.29122884     0.73940
O4365       O  0.92878706  0.75260183  0.20239340    -0.39510
O4366       O  0.94914316  0.74063054  0.24746200    -0.39460
O4367       O  0.79857580  0.76615138  0.27451515    -0.40160
O4368       O  0.81893929  0.75632057  0.32009602    -0.40230
C4369       C  0.72119652  0.00274057  0.23036651    -0.12510
C4370       C  0.72743203  0.01713070  0.25864148     0.04500
C4371       C  0.75224342  0.00779372  0.27603659    -0.07800
C4372       C  0.77062023  0.98571206  0.26399137    -0.08540
C4373       C  0.76442978  0.97120784  0.23575313    -0.03090
C4374       C  0.73943640  0.98027918  0.21849650     0.03730
N4375       N  0.73254310  0.96764435  0.18856164     0.66230
H4376       H  0.70283370  0.01023236  0.21622790     0.15130
H4377       H  0.78908533  0.97856955  0.27813505     0.14840
N4378       N  0.75893655  0.52004312  0.30624024     0.73940
O4379       O  0.70698757  0.96553119  0.18020662    -0.39510
O4380       O  0.75157671  0.96274868  0.16861049    -0.39460
O4381       O  0.73997965  0.52364619  0.32652588    -0.40160
O4382       O  0.78432847  0.52396402  0.31406668    -0.40230
C4383       C  0.65488513  0.73554103  0.23924273    -0.12510
C4384       C  0.64142426  0.71341227  0.25532513     0.04500
C4385       C  0.61518757  0.72122569  0.27001892    -0.07800
C4386       C  0.60389929  0.75033628  0.26866873    -0.08540
C4387       C  0.61744409  0.77219048  0.25270006    -0.03090
C4388       C  0.64335933  0.76473487  0.23826510     0.03730
N4389       N  0.65987081  0.78725083  0.22619138     0.66230
H4390       H  0.67508331  0.73044162  0.22846478     0.15130
H4391       H  0.58394787  0.75586048  0.27986830     0.14840
N4392       N  0.59910324  0.70016524  0.28598604     0.73940
O4393       O  0.66561105  0.80826474  0.24396068    -0.39510
O4394       O  0.67316004  0.78330128  0.20100783    -0.39460
O4395       O  0.59041634  0.70581154  0.31329607    -0.40160
O4396       O  0.58756159  0.68050160  0.27028639    -0.40230
C4397       C  0.78805651  0.64027392  0.22570694    -0.12510
C4398       C  0.78189374  0.61044543  0.22593937     0.04500
C4399       C  0.80390586  0.58856149  0.22301443    -0.07800
C4400       C  0.83185560  0.59708251  0.22440192    -0.08540
C4401       C  0.83785879  0.62677370  0.22821140    -0.03090
C4402       C  0.81576643  0.64870072  0.22692272     0.03730
N4403       N  0.82067793  0.67906029  0.23190582     0.66230
H4404       H  0.77112669  0.65718540  0.22784204     0.15130
H4405       H  0.84905187  0.58031170  0.22441303     0.14840
N4406       N  0.79851206  0.55784121  0.22168365     0.73940
O4407       O  0.80926531  0.69833860  0.21348389    -0.39510
O4408       O  0.83012482  0.68685524  0.25834584    -0.39460
O4409       O  0.78048477  0.54893926  0.20216010    -0.40160
O4410       O  0.81474643  0.53915407  0.23623053    -0.40230
C4411       C  0.57109396  0.63974182  0.21558481    -0.12510
C4412       C  0.58776960  0.61499488  0.22564991     0.04500
C4413       C  0.57439360  0.58887131  0.23380640    -0.07800
C4414       C  0.54489717  0.58891154  0.23315309    -0.08540
C4415       C  0.52846476  0.61482049  0.22723781    -0.03090
C4416       C  0.54169942  0.64070624  0.21806414     0.03730
N4417       N  0.52614116  0.66825886  0.21162677     0.66230
H4418       H  0.58107886  0.65971557  0.20920577     0.15130
H4419       H  0.53483175  0.56928457  0.24058295     0.14840
N4420       N  0.58987568  0.56266488  0.24483824     0.73940
O4421       O  0.53333710  0.68417552  0.18904437    -0.39510
O4422       O  0.50978676  0.67955628  0.23182589    -0.39460
O4423       O  0.59927611  0.56162099  0.27287468    -0.40160
O4424       O  0.58558377  0.53868953  0.23129681    -0.40230
C4425       C  0.54385568  0.84428077  0.38409514    -0.12510
C4426       C  0.53462808  0.82800935  0.35850209     0.04500
C4427       C  0.00797841  0.81532726  0.35994289    -0.07800
C4428       C  0.98984048  0.82302954  0.38490073    -0.08540
C4429       C  0.99727960  0.84379227  0.40744651    -0.03090
C4430       C  0.52526707  0.85396430  0.40750331     0.03730
N4431       N  0.53532231  0.87529296  0.42942826     0.66230
H4432       H  0.56438742  0.85361603  0.38330559     0.15130
H4433       H  0.96878870  0.81485744  0.38515136     0.14840
N4434       N  0.99854434  0.79604105  0.33556625     0.73940
O4435       O  0.56137906  0.87459520  0.43656937    -0.39510
O4436       O  0.02074205  0.89864617  0.43486857    -0.39460
O4437       O  0.01625655  0.78155054  0.31914043    -0.40160
O4438       O  0.97261204  0.79138562  0.33218431    -0.40230
C4439       C  0.51798588  0.84097417  0.08539073    -0.12510
C4440       C  0.98861890  0.84164451  0.08950413     0.04500
C4441       C  0.97848428  0.83743896  0.12010930    -0.07800
C4442       C  0.99766779  0.83631777  0.14590405    -0.08540
C4443       C  0.52702519  0.83790350  0.14238338    -0.03090
C4444       C  0.53762727  0.83874224  0.11113894     0.03730
N4445       N  0.56744355  0.83945497  0.10444768     0.66230
H4446       H  0.52564595  0.84464370  0.06205219     0.15130
H4447       H  0.98940625  0.83512812  0.16931529     0.14840
N4448       N  0.94873585  0.83503397  0.12545248     0.73940
O4449       O  0.57592246  0.83443070  0.07692089    -0.39510
O4450       O  0.58523021  0.84721751  0.12479430    -0.39460
O4451       O  0.93321714  0.82374699  0.10480747    -0.40160
O4452       O  0.93874764  0.84012456  0.15231781    -0.40230
C4453       C  0.82975025  0.90168171  0.37316773    -0.12510
C4454       C  0.83544500  0.92162025  0.34942223     0.04500
C4455       C  0.86226956  0.93414405  0.35021687    -0.07800
C4456       C  0.88319765  0.92400119  0.37291250    -0.08540
C4457       C  0.87872953  0.90031691  0.39332650    -0.03090
C4458       C  0.85124851  0.88903540  0.39312033     0.03730
N4459       N  0.84465418  0.86362231  0.41117168     0.66230
H4460       H  0.80927076  0.89237843  0.37299776     0.15130
H4461       H  0.90365159  0.93352501  0.37355099     0.14840
N4462       N  0.86848683  0.95699231  0.32822953     0.73940
O4463       O  0.82015566  0.86261004  0.42200837    -0.39510
O4464       O  0.85857934  0.83957226  0.40707643    -0.39460
O4465       O  0.84880521  0.97063358  0.31262772    -0.40160
O4466       O  0.89338349  0.96530658  0.32610431    -0.40230
C4467       C  0.84882385  0.90341195  0.08422331    -0.12510
C4468       C  0.87800307  0.90178610  0.09169318     0.04500
C4469       C  0.88708985  0.90745511  0.12269547    -0.07800
C4470       C  0.86690584  0.91071060  0.14610472    -0.08540
C4471       C  0.83757189  0.90922162  0.13972422    -0.03090
C4472       C  0.82824048  0.90816293  0.10775011     0.03730
N4473       N  0.79880565  0.91346002  0.09858569     0.66230
H4474       H  0.84220949  0.90109423  0.05984033     0.15130
H4475       H  0.87461638  0.91349958  0.17002055     0.14840
N4476       N  0.91662017  0.90947021  0.13106715     0.73940
O4477       O  0.78123289  0.92398577  0.11796488    -0.39510
O4478       O  0.79132954  0.91304207  0.06987766    -0.39460
O4479       O  0.92542768  0.90337729  0.15874963    -0.40160
O4480       O  0.93302686  0.92147007  0.11251701    -0.40230
C4481       C  0.73244803  0.86830777  0.38632097    -0.12510
C4482       C  0.73742995  0.84682057  0.40968001     0.04500
C4483       C  0.76124373  0.82614966  0.40584636    -0.07800
C4484       C  0.77895501  0.82897339  0.37904098    -0.08540
C4485       C  0.77344229  0.85088567  0.35572955    -0.03090
C4486       C  0.74929396  0.87039014  0.35996916     0.03730
N4487       N  0.74110546  0.89332378  0.33802197     0.66230
H4488       H  0.71480416  0.88436290  0.38847220     0.15130
H4489       H  0.79722094  0.81389639  0.37621229     0.14840
N4490       N  0.76870105  0.80294018  0.42845775     0.73940
O4491       O  0.72024473  0.88953085  0.31982719    -0.39510
O4492       O  0.74675892  0.91930426  0.34484831    -0.39460
O4493       O  0.75320934  0.79789732  0.45138818    -0.40160
O4494       O  0.79080127  0.78650372  0.42502398    -0.40230
C4495       C  0.79404772  0.83369768  0.11838463    -0.12510
C4496       C  0.78648396  0.82093595  0.14675820     0.04500
C4497       C  0.76070013  0.80629589  0.14719621    -0.07800
C4498       C  0.73973451  0.81315205  0.12348025    -0.08540
C4499       C  0.74587022  0.83072492  0.09754812    -0.03090
C4500       C  0.77437982  0.83698513  0.09322164     0.03730
N4501       N  0.78381917  0.84360090  0.06246525     0.66230
H4502       H  0.81475287  0.84241197  0.11631934     0.15130
H4503       H  0.71862123  0.80547923  0.12562528     0.14840
N4504       N  0.75577855  0.78472796  0.17122816     0.73940
O4505       O  0.80688956  0.85564569  0.05899348    -0.39510
O4506       O  0.77324758  0.83024014  0.03956454    -0.39460
O4507       O  0.73377971  0.77028840  0.16989160    -0.40160
O4508       O  0.77510396  0.77682871  0.19097122    -0.40230
C4509       C  0.64542756  0.89039555  0.38058148    -0.12510
C4510       C  0.63648655  0.90318199  0.40853721     0.04500
C4511       C  0.60993321  0.91931519  0.40868064    -0.07800
C4512       C  0.59156356  0.91869345  0.38181154    -0.08540
C4513       C  0.60010408  0.90381501  0.35440604    -0.03090
C4514       C  0.62796002  0.89029097  0.35403273     0.03730
N4515       N  0.63834543  0.87348734  0.32800422     0.66230
H4516       H  0.66563463  0.87796851  0.37999231     0.15130
H4517       H  0.57088529  0.93014264  0.38212300     0.14840
N4518       N  0.60186043  0.93708482  0.43505463     0.73940
O4519       O  0.65784942  0.88341102  0.31197707    -0.39510
O4520       O  0.63480853  0.84622263  0.32754509    -0.39460
O4521       O  0.61927581  0.95429161  0.44657482    -0.40160
O4522       O  0.57613503  0.94053283  0.44214331    -0.40230
C4523       C  0.62305460  0.91752013  0.15521010    -0.12510
C4524       C  0.59394890  0.91498112  0.14877132     0.04500
C4525       C  0.58484350  0.91315773  0.11702372    -0.07800
C4526       C  0.60525956  0.90703479  0.09388650    -0.08540
C4527       C  0.63441862  0.90596367  0.10110791    -0.03090
C4528       C  0.64343815  0.91351449  0.13164047     0.03730
N4529       N  0.67314459  0.91474092  0.13942597     0.66230
H4530       H  0.63000047  0.92086701  0.17918828     0.15130
H4531       H  0.59836786  0.90087715  0.07065548     0.14840
N4532       N  0.55521820  0.91501440  0.10840860     0.73940
O4533       O  0.68207366  0.91085916  0.16740207    -0.39510
O4534       O  0.69040065  0.92167313  0.11877296    -0.39300
O4535       O  0.53843006  0.93271080  0.12247565    -0.40160
O4536       O  0.54661237  0.90301647  0.08357545    -0.40230
C4537       C  0.82547271  0.90323230  0.48060739    -0.12510
C4538       C  0.83764231  0.87578912  0.99009358     0.04500
C4539       C  0.82086001  0.85114179  0.99060849    -0.07800
C4540       C  0.79207112  0.85502270  0.98334482    -0.08540
C4541       C  0.77941258  0.88296985  0.47795696    -0.03090
C4542       C  0.79639744  0.90703635  0.47401649     0.03730
N4543       N  0.78486095  0.93476454  0.46203680     0.66230
H4544       H  0.83887500  0.92153768  0.47767094     0.15130
H4545       H  0.77900349  0.83634832  0.98417022     0.14840
N4546       N  0.83237046  0.82217320  0.99848156     0.73940
O4547       O  0.79845930  0.95753958  0.46606142    -0.39510
O4548       O  0.76491028  0.93540950  0.44179618    -0.39460
O4549       O  0.84309325  0.81724372  0.02557960    -0.40160
O4550       O  0.82518957  0.80066253  0.98214571    -0.40230
C4551       C  0.57179723  0.84669658  0.49871893    -0.12510
C4552       C  0.58995080  0.86951295  0.50377653     0.04500
C4553       C  0.57832068  0.89825851  0.01051404    -0.07800
C4554       C  0.54880713  0.90266184  0.01262999    -0.08540
C4555       C  0.53073572  0.87981776  0.00719508    -0.03090
C4556       C  0.54250599  0.85143236  0.49973625     0.03730
N4557       N  0.52536574  0.82724103  0.49229061     0.66230
H4558       H  0.58048402  0.82465060  0.49399917     0.15130
H4559       H  0.53967318  0.92457624  0.01702437     0.14840
N4560       N  0.59544950  0.92332195  0.01456073     0.73940
O4561       O  0.53225399  0.81006215  0.47018009    -0.39510
O4562       O  0.00663461  0.81990335  0.01092826    -0.39460
O4563       O  0.61925913  0.92420852  0.50202666    -0.40160
O4564       O  0.58560031  0.94605438  0.02832708    -0.40230
C4565       C  0.76528488  0.66191192  0.37482976    -0.12510
C4566       C  0.75499263  0.65904489  0.40518651     0.04500
C4567       C  0.72528756  0.66345904  0.40899152    -0.07800
C4568       C  0.70676456  0.66282819  0.38212957    -0.08540
C4569       C  0.71730060  0.66284439  0.35148566    -0.03090
C4570       C  0.74700931  0.66611036  0.34845485     0.03730
N4571       N  0.75917382  0.67267737  0.31865977     0.66230
H4572       H  0.78796920  0.66048505  0.37158658     0.15130
H4573       H  0.68412885  0.66242716  0.38508154     0.14840
N4574       N  0.71384519  0.67085104  0.43908537     0.73940
O4575       O  0.74799399  0.69309547  0.30148528    -0.39510
O4576       O  0.78307119  0.66118324  0.31155489    -0.39460
O4577       O  0.72927622  0.68231729  0.45969905    -0.40160
O4578       O  0.68736601  0.67268483  0.44234794    -0.40230
C4579       C  0.72801845  0.66169689  0.09161450    -0.12510
C4580       C  0.75712702  0.65367481  0.09565047     0.04500
C4581       C  0.76755513  0.64818940  0.12648036    -0.07800
C4582       C  0.74879426  0.64703947  0.15153643    -0.08540
C4583       C  0.71939185  0.65241267  0.14737591    -0.03090
C4584       C  0.70919406  0.66154619  0.11715112     0.03730
N4585       N  0.67976142  0.66897938  0.11147444     0.66230
H4586       H  0.71945289  0.66606542  0.06826521     0.15130
H4587       H  0.75727341  0.64099115  0.17446885     0.14840
N4588       N  0.79730759  0.64325826  0.13242977     0.73940
O4589       O  0.67190062  0.69428548  0.10124697    -0.39510
O4590       O  0.66169040  0.64998812  0.11523094    -0.39460
O4591       O  0.81401186  0.66079909  0.12084037    -0.40160
O4592       O  0.80658417  0.62422839  0.15239024    -0.40230
C4593       C  0.89479029  0.59348818  0.40759754    -0.12510
C4594       C  0.86592456  0.59317715  0.39924672     0.04500
C4595       C  0.85776285  0.58482797  0.36872540    -0.07800
C4596       C  0.87869832  0.57930310  0.34657505    -0.08540
C4597       C  0.90756175  0.58336469  0.35341476    -0.03090
C4598       C  0.91595765  0.58840498  0.38505545     0.03730
N4599       N  0.94535390  0.58804475  0.39468415     0.66230
H4600       H  0.90073598  0.59804604  0.43177065     0.15130
H4601       H  0.87188584  0.57396247  0.32288254     0.14840
N4602       N  0.82843257  0.58373234  0.35912383     0.73940
O4603       O  0.95265348  0.60006401  0.42004240    -0.39510
O4604       O  0.96335254  0.57139959  0.38107051    -0.39460
O4605       O  0.82062444  0.59079868  0.33134207    -0.40160
O4606       O  0.81067472  0.57343075  0.37731363    -0.40230
C4607       C  0.86789917  0.62855168  0.10366543    -0.12510
C4608       C  0.86224421  0.60305329  0.08746807     0.04500
C4609       C  0.87366216  0.57559062  0.09949061    -0.07800
C4610       C  0.88920260  0.57492557  0.12858671    -0.08540
C4611       C  0.89264268  0.60084064  0.14595503    -0.03090
C4612       C  0.88089644  0.62788075  0.13298560     0.03730
N4613       N  0.87901611  0.65492615  0.15007818     0.66230
H4614       H  0.85993656  0.64982811  0.09471134     0.15130
H4615       H  0.89852031  0.55423019  0.13769059     0.14840
N4616       N  0.87105776  0.54881906  0.08210802     0.73940
O4617       O  0.88794145  0.67776635  0.13764154    -0.39510
O4618       O  0.86024561  0.65805034  0.17054364    -0.39460
O4619       O  0.87066434  0.54926397  0.05238266    -0.40160
O4620       O  0.87296985  0.52426880  0.09622634    -0.40230
C4621       C  0.76039195  0.01060896  0.03596011    -0.12510
C4622       C  0.76936609  0.51966440  0.00625595     0.04500
C4623       C  0.75758862  0.50696831  0.47894691    -0.07800
C4624       C  0.73808744  0.98514761  0.48229064    -0.08540
C4625       C  0.73095062  0.97439683  0.51198916    -0.03090
C4626       C  0.74145094  0.98825108  0.03910104     0.03730
N4627       N  0.73147654  0.98165177  0.06974236     0.66230
H4628       H  0.76775048  0.02143781  0.05700963     0.15130
H4629       H  0.72944194  0.47555498  0.46118245     0.14840
N4630       N  0.76460702  0.51599138  0.44766328     0.73940
O4631       O  0.74220668  0.95968975  0.08482815    -0.39510
O4632       O  0.71664036  0.00092577  0.08412675    -0.39460
O4633       O  0.79004907  0.51428575  0.43927713    -0.40160
O4634       O  0.74538894  0.51883978  0.42661273    -0.40230
C4635       C  0.86272471  0.74217605  0.46266510    -0.12510
C4636       C  0.85265063  0.72861920  0.98976942     0.04500
C4637       C  0.86216067  0.73845111  0.01954346    -0.07800
C4638       C  0.88034735  0.76150544  0.02155030    -0.08540
C4639       C  0.88997033  0.77568482  0.99465389    -0.03090
C4640       C  0.88167229  0.76507212  0.46463611     0.03730
N4641       N  0.89292682  0.77623429  0.43607371     0.66230
H4642       H  0.85666921  0.73411709  0.43969583     0.15130
H4643       H  0.88650513  0.76869879  0.04484645     0.14840
N4644       N  0.85461297  0.72464838  0.04829414     0.73940
O4645       O  0.91910659  0.77977016  0.43435304    -0.39510
O4646       O  0.87798990  0.77719363  0.91105537    -0.39460
O4647       O  0.86753566  0.70083357  0.55687703    -0.40160
O4648       O  0.84028091  0.73927973  0.06809207    -0.40230
C4649       C  0.98340154  0.67097472  0.40715804    -0.12510
C4650       C  0.50552408  0.64899827  0.40505550     0.04500
C4651       C  0.50963080  0.63422169  0.37641659    -0.07800
C4652       C  0.49160226  0.64105070  0.35117883    -0.08540
C4653       C  0.96792036  0.66080511  0.35362095    -0.03090
C4654       C  0.96397228  0.67692525  0.38171743     0.03730
N4655       N  0.94151383  0.69954073  0.38464077     0.66230
H4656       H  0.98096174  0.68296303  0.42895112     0.15130
H4657       H  0.49564995  0.62922297  0.32959669     0.14840
N4658       N  0.53211743  0.61225826  0.37202084     0.73940
O4659       O  0.93844370  0.71327437  0.41018353    -0.39510
O4660       O  0.92561612  0.70719154  0.36142653    -0.39460
O4661       O  0.52978514  0.58674011  0.38311183    -0.40160
O4662       O  0.54885091  0.61545551  0.34969695    -0.40230
C4663       C  0.00904553  0.66101456  0.11428965    -0.12510
C4664       C  0.52911263  0.63701198  0.11493385     0.04500
C4665       C  0.53002610  0.61730469  0.14006302    -0.07800
C4666       C  0.50743343  0.61748676  0.15979892    -0.08540
C4667       C  0.98757319  0.64159725  0.16113905    -0.03090
C4668       C  0.98854590  0.66425559  0.13802354     0.03730
N4669       N  0.96784519  0.68865608  0.13613975     0.66230
H4670       H  0.00815618  0.67596212  0.09430225     0.15130
H4671       H  0.50644931  0.59868552  0.17512380     0.14840
N4672       N  0.55391458  0.59690374  0.14540922     0.73940
O4673       O  0.97295651  0.71158955  0.12090240    -0.39510
O4674       O  0.94334174  0.68634367  0.14651848    -0.39460
O4675       O  0.57851621  0.60582049  0.14276813    -0.40160
O4676       O  0.55084269  0.57214920  0.15803878    -0.40230
C4677       C  0.65466282  0.56632192  0.38390169    -0.12510
C4678       C  0.65198806  0.58596537  0.35799014     0.04500
C4679       C  0.62828766  0.60638103  0.35747382    -0.07800
C4680       C  0.61076777  0.60926692  0.38305182    -0.08540
C4681       C  0.61373040  0.59148012  0.41007531    -0.03090
C4682       C  0.63519402  0.56774561  0.40948616     0.03730
N4683       N  0.63804023  0.54498833  0.43344573     0.66230
H4684       H  0.67163591  0.54935594  0.38382616     0.15130
H4685       H  0.59389191  0.62629103  0.38105535     0.14840
N4686       N  0.62049776  0.62454422  0.33080956     0.73940
O4687       O  0.65201389  0.52117069  0.42801612    -0.39510
O4688       O  0.62745925  0.54837866  0.46022326    -0.39460
O4689       O  0.60444212  0.61426304  0.31007303    -0.40160
O4690       O  0.61979086  0.65208919  0.33425064    -0.40230
C4691       C  0.67376470  0.57877517  0.11718627    -0.12510
C4692       C  0.66174668  0.56947142  0.14509351     0.04500
C4693       C  0.63434511  0.55836699  0.14355329    -0.07800
C4694       C  0.61800912  0.56209027  0.11526858    -0.08540
C4695       C  0.62852177  0.57631872  0.08895378    -0.03090
C4696       C  0.65765531  0.58163407  0.08897275     0.03730
N4697       N  0.67084980  0.59030908  0.06056185     0.66230
H4698       H  0.69524396  0.58585927  0.11792693     0.15130
H4699       H  0.59607705  0.55650245  0.11473050     0.14840
N4700       N  0.62273356  0.54379518  0.17019852     0.73940
O4701       O  0.69392894  0.60290085  0.06177677    -0.39510
O4702       O  0.66244405  0.58031665  0.03458000    -0.39460
O4703       O  0.63745829  0.53863955  0.19496794    -0.40160
O4704       O  0.59924376  0.53215050  0.16739673    -0.40230
C4705       C  0.51080020  0.00700991  0.46720890    -0.12510
C4706       C  0.51205039  0.52319274  0.99538731     0.04500
C4707       C  0.99397200  0.51561380  0.02002834    -0.07800
C4708       C  0.97477179  0.49334447  0.01518185    -0.08540
C4709       C  0.97330812  0.97773907  0.98672022    -0.03090
C4710       C  0.99158621  0.98506968  0.46232997     0.03730
N4711       N  0.99053449  0.97113528  0.43207366     0.66230
H4712       H  0.52418969  0.01227964  0.44785119     0.15130
H4713       H  0.96177154  0.48721295  0.03456374     0.14840
N4714       N  0.99488569  0.52953618  0.05022674     0.73940
O4715       O  0.51305380  0.96547620  0.41735081    -0.39510
O4716       O  0.96703104  0.96842270  0.91807660    -0.39460
O4717       O  0.97224147  0.53432197  0.56498372    -0.40160
O4718       O  0.01818668  0.53048110  0.06510231    -0.40230
C4719       C  0.95247545  0.63929748  0.48350821    -0.12510
C4720       C  0.96554456  0.62838746  0.51132264     0.04500
C4721       C  0.94886959  0.62517708  0.03853509    -0.07800
C4722       C  0.91932830  0.63121663  0.03607337    -0.08540
C4723       C  0.90626849  0.64049131  0.50755525    -0.03090
C4724       C  0.92339860  0.64628216  0.48159569     0.03730
N4725       N  0.91167220  0.66034688  0.45352476     0.66230
H4726       H  0.96520413  0.64308956  0.46320271     0.15130
H4727       H  0.90638615  0.62711819  0.05603636     0.14840
N4728       N  0.96087059  0.61449924  0.06819657     0.73940
O4729       O  0.89598071  0.68352514  0.45558766    -0.39510
O4730       O  0.92029184  0.65247760  0.42684288    -0.39460
O4731       O  0.98059508  0.59468822  0.06906764    -0.40160
O4732       O  0.94910208  0.62180311  0.09358939    -0.40230
C4733       C  0.66759230  0.60839424  0.47011326    -0.12510
C4734       C  0.65745129  0.63150626  0.98860731     0.04500
C4735       C  0.67604747  0.64821749  0.00621820    -0.07800
C4736       C  0.70487309  0.64175747  0.00392158    -0.08540
C4737       C  0.71523048  0.61818268  0.98560578    -0.03090
C4738       C  0.69626809  0.60113184  0.46875478     0.03730
N4739       N  0.70538549  0.57527851  0.45212009     0.66230
H4740       H  0.65306431  0.59522326  0.45800802     0.15130
H4741       H  0.71924443  0.65491064  0.01702530     0.14840
N4742       N  0.66622151  0.67004934  0.02813993     0.73940
O4743       O  0.71204907  0.57721253  0.92362286    -0.39510
O4744       O  0.70227991  0.55032861  0.46425731    -0.39460
O4745       O  0.64885016  0.66330422  0.04863586    -0.40160
O4746       O  0.67965153  0.69296413  0.53198766    -0.40230
C4747       C  0.61543534  0.76834174  0.03845761    -0.12510
C4748       C  0.63985386  0.76777216  0.51971480     0.04500
C4749       C  0.64432661  0.74421492  0.49867816    -0.07800
C4750       C  0.62477479  0.72229927  0.49699605    -0.08540
C4751       C  0.60126528  0.72205589  0.51667139    -0.03090
C4752       C  0.59607394  0.74582004  0.03732574     0.03730
N4753       N  0.57116499  0.74814203  0.05635620     0.66230
H4754       H  0.61115785  0.78671120  0.05402107     0.15130
H4755       H  0.62890052  0.70466411  0.48068162     0.14840
N4756       N  0.66885702  0.74157149  0.47936300     0.73940
O4757       O  0.56176620  0.77297763  0.06579964    -0.39510
O4758       O  0.55817104  0.72570232  0.56363710    -0.39460
O4759       O  0.69330308  0.74195108  0.99180826    -0.40160
O4760       O  0.66633072  0.73430692  0.45085878    -0.40230
O4761       O  0.59553813  0.67315110  0.53303315    -0.80380
O4762       O  0.50668817  0.60741539  0.98689046    -0.80400
O4763       O  0.53357743  0.66222599  0.94940881    -0.80410
O4764       O  0.54218781  0.59966685  0.57923212    -0.80350
O4765       O  0.53352277  0.61507121  0.93641099    -0.80470
O4766       O  0.55438630  0.64466920  0.56723452    -0.80390
O4767       O  0.51237870  0.62634108  0.53285855    -0.80380
O4768       O  0.56599777  0.69150465  0.99594510    -0.80420
C4769       C  0.58525382  0.69496261  0.01670678     1.09310
C4770       C  0.99629890  0.62049675  0.01042363     1.09200
C4771       C  0.52471481  0.64182912  0.93207668     1.09330
C4772       C  0.54319966  0.62679988  0.58646654     1.09210
O4773       O  0.60896655  0.62242257  0.57059140    -0.80380
O4774       O  0.58601632  0.58592643  0.95880008    -0.80460
O4775       O  0.61391306  0.65658905  0.97813125    -0.80390
O4776       O  0.53366038  0.56589108  0.52036693    -0.80370
O4777       O  0.53548401  0.55957746  0.96783426    -0.80420
O4778       O  0.61528278  0.61733000  0.50826112    -0.80390
O4779       O  0.58977899  0.58405684  0.54901615    -0.80350
O4780       O  0.58434332  0.62857854  0.93408131    -0.80420
Co4781     Co  0.58449784  0.63110454  0.53529547     1.51530
Co4782     Co  0.54761780  0.59664173  0.97676149     1.51690
Co4783     Co  0.57313638  0.65872486  0.96619456     1.51570
Co4784     Co  0.55055667  0.60619824  0.53672101     1.51470
O4785       O  0.56004970  0.62982042  0.49797455    -1.42310
C4786       C  0.60827662  0.59467236  0.56853120     1.09240
C4787       C  0.59425756  0.60192736  0.93639088     1.09330
C4788       C  0.62740399  0.63533947  0.49164747     1.09270
C4789       C  0.52859718  0.55042105  0.49492513     1.09240
O4790       O  0.77767780  0.56758238  0.52291616    -0.80380
O4791       O  0.86498229  0.63536409  0.97672275    -0.80400
O4792       O  0.83338713  0.58103384  0.93754517    -0.80410
O4793       O  0.84092878  0.63337781  0.54642108    -0.80350
O4794       O  0.83699743  0.62869153  0.92645196    -0.80470
O4795       O  0.82496359  0.58913673  0.55192122    -0.80390
O4796       O  0.85705756  0.64688743  0.52453936    -0.80380
O4797       O  0.80223393  0.55096856  0.98261888    -0.80420
C4798       C  0.78499372  0.54682795  0.50449557     1.09310
C4799       C  0.87506561  0.64115452  0.50308891     1.09200
C4800       C  0.84460237  0.60148762  0.92255859     1.09330
C4801       C  0.84211057  0.60786193  0.56039549     1.09210
O4802       O  0.77283395  0.61378370  0.56435761    -0.80380
O4803       O  0.78500161  0.65784126  0.95295771    -0.80460
O4804       O  0.75601749  0.59062361  0.96982155    -0.80390
O4805       O  0.82415170  0.69153226  0.51144711    -0.80370
O4806       O  0.83621358  0.68657050  0.96126723    -0.80420
O4807       O  0.76095340  0.62593816  0.50388671    -0.80390
O4808       O  0.78877845  0.65692993  0.55016296    -0.80350
O4809       O  0.78418017  0.61838448  0.92399951    -0.80420
Co4810     Co  0.79302689  0.60711598  0.52698374     1.51530
Co4811     Co  0.82486731  0.64569444  0.96797668     1.51690
Co4812     Co  0.79530202  0.58625998  0.95530379     1.51570
Co4813     Co  0.81502664  0.64962473  0.51009616     1.51470
O4814       O  0.81413636  0.60908325  0.48982774    -1.42310
C4815       C  0.77374367  0.64119417  0.56871290     1.09240
C4816       C  0.77494026  0.64450727  0.92940054     1.09330
C4817       C  0.74556683  0.61139717  0.48607736     1.09270
C4818       C  0.83602538  0.70172165  0.98692772     1.09240
O4819       O  0.65172754  0.81454206  0.53883601    -0.80380
O4820       O  0.73000345  0.89389091  0.96697396    -0.80400
O4821       O  0.70594696  0.82791005  0.94918770    -0.80410
O4822       O  0.72430431  0.87143018  0.56847558    -0.80350
O4823       O  0.71217425  0.87686594  0.94777906    -0.80470
O4824       O  0.70300537  0.83028082  0.56508113    -0.80390
O4825       O  0.74282361  0.88133322  0.51409858    -0.80380
O4826       O  0.67491893  0.79805742  0.99760097    -0.80420
C4827       C  0.65738623  0.79408476  0.01939884     1.09310
C4828       C  0.74986255  0.88717431  0.98660425     1.09200
C4829       C  0.71765095  0.84998090  0.93725228     1.09330
C4830       C  0.72317877  0.84451497  0.57612275     1.09210
O4831       O  0.65400563  0.86110609  0.58212156    -0.80380
O4832       O  0.66220344  0.90863646  0.95757739    -0.80460
O4833       O  0.62974065  0.84036527  0.98654287    -0.80390
O4834       O  0.71734069  0.93030172  0.53820196    -0.80370
O4835       O  0.70385151  0.93727280  0.98797557    -0.80420
O4836       O  0.63684007  0.87347326  0.52261037    -0.80390
O4837       O  0.66836833  0.90186289  0.55849735    -0.80350
O4838       O  0.65776080  0.86445481  0.93851681    -0.80420
Co4839     Co  0.67029583  0.85244075  0.54319095     1.51530
Co4840     Co  0.69288847  0.89583438  0.98834529     1.51690
Co4841     Co  0.66890291  0.83372366  0.97050018     1.51570
Co4842     Co  0.70438527  0.89044875  0.53089678     1.51470
O4843       O  0.68955473  0.85554845  0.00537849    -1.42310
C4844       C  0.65388708  0.88903545  0.58018438     1.09240
C4845       C  0.65238796  0.89195488  0.93706585     1.09330
C4846       C  0.62051399  0.86133584  0.00366972     1.09270
C4847       C  0.71583096  0.94668518  0.01328534     1.09240
O4848       O  0.93929474  0.94542269  0.50634556    -0.80380
O4849       O  0.88267786  0.88278010  0.97163336    -0.80400
O4850       O  0.91630485  0.90533104  0.93374874    -0.80410
O4851       O  0.90739659  0.86699811  0.56361680    -0.80350
O4852       O  0.90578687  0.86073039  0.91973198    -0.80470
O4853       O  0.90920673  0.91487124  0.55179309    -0.80390
O4854       O  0.88049291  0.85699152  0.51390806    -0.80380
O4855       O  0.96488677  0.93014994  0.96677035    -0.80420
C4856       C  0.95716181  0.95046786  0.98550372     1.09310
C4857       C  0.86835648  0.87223162  0.49254173     1.09200
C4858       C  0.90210077  0.88838448  0.91527261     1.09330
C4859       C  0.89884144  0.89406387  0.56727037     1.09210
O4860       O  0.95982182  0.88100249  0.56776936    -0.80380
O4861       O  0.95851977  0.84495070  0.94531331    -0.80460
O4862       O  0.98570549  0.87365573  0.98516045    -0.80390
O4863       O  0.91198588  0.81030762  0.52788294    -0.80370
O4864       O  0.90758422  0.82204979  0.97603327    -0.80420
O4865       O  0.98860450  0.90776236  0.52137221    -0.80390
O4866       O  0.96091405  0.83979780  0.54087459    -0.80350
O4867       O  0.97065810  0.88606223  0.92358826    -0.80420
Co4868     Co  0.94804266  0.91141955  0.53488628     1.51530
Co4869     Co  0.92019399  0.86444807  0.96200723     1.51690
Co4870     Co  0.95122732  0.88970970  0.96208517     1.51570
Co4871     Co  0.92192079  0.84924829  0.52308320     1.51470
O4872       O  0.93248046  0.88401372  0.50252016    -1.42310
C4873       C  0.96922542  0.85459781  0.56428165     1.09240
C4874       C  0.97433866  0.85848614  0.92583542     1.09330
C4875       C  0.00000338  0.88717701  0.50504426     1.09270
C4876       C  0.90492168  0.80353724  0.49955731     1.09240
O4877       O  0.71135708  0.62466464  0.69386070    -0.80380
O4878       O  0.67498716  0.64380368  0.82413875    -0.80400
O4879       O  0.67573677  0.67469794  0.73975850    -0.80410
O4880       O  0.74396472  0.62019918  0.75868358    -0.80350
O4881       O  0.64216318  0.66366920  0.77206590    -0.80470
O4882       O  0.73986518  0.58353312  0.72680213    -0.80390
O4883       O  0.71319784  0.64850790  0.79904855    -0.80380
O4884       O  0.67558330  0.65490767  0.67764393    -0.80420
C4885       C  0.70081159  0.64418979  0.67398080     1.09310
C4886       C  0.69987563  0.65358321  0.82329214     1.09200
C4887       C  0.65446007  0.68263031  0.75626287     1.09330
C4888       C  0.75405026  0.60394640  0.73753123     1.09210
O4889       O  0.69158396  0.55494137  0.74732985    -0.80380
O4890       O  0.62970683  0.60430918  0.75475717    -0.80460
O4891       O  0.66280706  0.59919651  0.69121036    -0.80390
O4892       O  0.69605914  0.59375384  0.83012515    -0.80370
O4893       O  0.65932764  0.58320939  0.80361179    -0.80420
O4894       O  0.69954005  0.56789882  0.68411037    -0.80390
O4895       O  0.72590479  0.56448077  0.78113220    -0.80350
O4896       O  0.63134168  0.63886139  0.71921785    -0.80420
Co4897     Co  0.69787193  0.59026698  0.72209924     1.51530
Co4898     Co  0.65281719  0.62299859  0.78703715     1.51690
Co4899     Co  0.67385902  0.63596986  0.71825271     1.51570
Co4900     Co  0.71838287  0.60713122  0.79051070     1.51470
O4901       O  0.68586827  0.61474275  0.75902609    -1.42310
C4902       C  0.71278038  0.54620874  0.76450254     1.09240
C4903       C  0.61792531  0.61902172  0.73263001     1.09330
C4904       C  0.67536778  0.57849305  0.67510090     1.09270
C4905       C  0.67112833  0.58428460  0.82987649     1.09240
O4906       O  0.90966134  0.62589388  0.69031772    -0.80380
O4907       O  0.94871897  0.60163023  0.82790633    -0.80400
O4908       O  0.95305177  0.55934256  0.74408651    -0.80410
O4909       O  0.87853398  0.61642019  0.75856625    -0.80350
O4910       O  0.98150333  0.57612991  0.78122684    -0.80470
O4911       O  0.87797023  0.65641510  0.73093543    -0.80390
O4912       O  0.91284610  0.59189387  0.79985953    -0.80380
O4913       O  0.92300434  0.57866524  0.68883089    -0.80420
C4914       C  0.90893598  0.60095337  0.67653008     1.09310
C4915       C  0.92524528  0.58971472  0.82583240     1.09200
C4916       C  0.97345525  0.55514822  0.76403322     1.09330
C4917       C  0.86634398  0.63333171  0.73886089     1.09210
O4918       O  0.92487408  0.68967675  0.75134719    -0.80380
O4919       O  0.49239110  0.63267402  0.75828962    -0.80460
O4920       O  0.96140982  0.61344174  0.69513103    -0.80390
O4921       O  0.92449574  0.65021642  0.82787799    -0.80370
O4922       O  0.95991277  0.66002341  0.79996346    -0.80420
O4923       O  0.95665205  0.66125520  0.70228942    -0.80390
O4924       O  0.89091182  0.67620681  0.78188768    -0.80350
O4925       O  0.47994836  0.59910214  0.72330753    -0.80420
Co4926     Co  0.91961024  0.65673902  0.72265418     1.51530
Co4927     Co  0.96894570  0.61877617  0.78988444     1.51690
Co4928     Co  0.93516819  0.59758181  0.72765078     1.51570
Co4929     Co  0.90281521  0.63305135  0.79037139     1.51470
O4930       O  0.93486720  0.62773080  0.75955126    -1.42310
C4931       C  0.90383917  0.69656317  0.76826508     1.09240
C4932       C  0.49888151  0.61531153  0.73670465     1.09330
C4933       C  0.96632370  0.63966855  0.68616496     1.09270
C4934       C  0.94846259  0.66121093  0.82601669     1.09240
O4935       O  0.53334954  0.86146394  0.69225026    -0.80380
O4936       O  0.57303726  0.84268361  0.82726014    -0.80400
O4937       O  0.60080093  0.81748663  0.72762565    -0.80410
O4938       O  0.00599223  0.86492221  0.75835604    -0.80350
O4939       O  0.59712271  0.81360556  0.77876685    -0.80470
O4940       O  0.00689661  0.90108799  0.72482911    -0.80390
O4941       O  0.53260807  0.83872175  0.80445310    -0.80380
O4942       O  0.56814528  0.83133276  0.67788747    -0.80420
C4943       C  0.54401444  0.84355023  0.67175878     1.09310
C4944       C  0.54814779  0.83400843  0.82810500     1.09200
C4945       C  0.60455238  0.80270599  0.75286905     1.09330
C4946       C  0.99333236  0.88157966  0.73875665     1.09210
O4947       O  0.55618170  0.93147837  0.74371117    -0.80380
O4948       O  0.62384928  0.86602602  0.76093720    -0.80460
O4949       O  0.58742610  0.88186748  0.69180077    -0.80390
O4950       O  0.55507821  0.89502038  0.82757291    -0.80370
O4951       O  0.59300864  0.89729839  0.80062900    -0.80420
O4952       O  0.55179985  0.91492086  0.68106499    -0.80390
O4953       O  0.52338204  0.92270965  0.77812714    -0.80350
O4954       O  0.60461946  0.87149964  0.71286627    -0.80420
Co4955     Co  0.54956735  0.89436782  0.72071687     1.51530
Co4956     Co  0.59484613  0.85594055  0.78946148     1.51690
Co4957     Co  0.56946010  0.84849528  0.71937486     1.51570
Co4958     Co  0.53052215  0.87980172  0.79032055     1.51470
O4959       O  0.56181994  0.86937746  0.75991354    -1.42310
C4960       C  0.53656481  0.94083322  0.76176463     1.09240
C4961       C  0.62487060  0.87472125  0.73311425     1.09330
C4962       C  0.57639482  0.90397778  0.67467338     1.09270
C4963       C  0.58105887  0.90128830  0.82613969     1.09240
O4964       O  0.83136521  0.90652190  0.69415186    -0.80380
O4965       O  0.79435185  0.92479745  0.81289772    -0.80400
O4966       O  0.76734902  0.92300207  0.71435315    -0.80410
O4967       O  0.86533206  0.85665250  0.77981322    -0.80350
O4968       O  0.80103940  0.93490322  0.74780844    -0.80470
O4969       O  0.86050237  0.89039707  0.74399117    -0.80390
O4970       O  0.83268306  0.89912142  0.79994027    -0.80380
O4971       O  0.79622328  0.89225196  0.66709222    -0.80420
C4972       C  0.81957403  0.90476930  0.66783433     1.09310
C4973       C  0.82003251  0.91650566  0.81915020     1.09200
C4974       C  0.77987095  0.94243828  0.73016670     1.09330
C4975       C  0.87638184  0.87576486  0.76254630     1.09210
O4976       O  0.85308212  0.82789716  0.73093767    -0.80380
O4977       O  0.75108716  0.90744280  0.76749397    -0.80460
O4978       O  0.78241097  0.83767594  0.69829727    -0.80390
O4979       O  0.81846176  0.84608412  0.82598890    -0.80370
O4980       O  0.78083346  0.86778534  0.80308817    -0.80420
O4981       O  0.82296634  0.84441261  0.67695679    -0.80390
O4982       O  0.82084204  0.81847434  0.76613576    -0.80350
O4983       O  0.75496866  0.86698745  0.74261790    -0.80420
Co4984     Co  0.84128048  0.86800181  0.71267284     1.51530
Co4985     Co  0.79393698  0.90111681  0.77462384     1.51690
Co4986     Co  0.77594472  0.87943287  0.70714551     1.51570
Co4987     Co  0.82215164  0.85903579  0.78190038     1.51470
O4988       O  0.80793228  0.87488282  0.73905521    -1.42310
C4989       C  0.84172419  0.80983980  0.74943409     1.09240
C4990       C  0.73909148  0.88680497  0.75357071     1.09330
C4991       C  0.79910397  0.83244319  0.67634198     1.09270
C4992       C  0.79217985  0.85454785  0.82738435     1.09240
C4993       C  0.94525200  0.90449718  0.73546974    -0.12510
C4994       C  0.96263504  0.87879920  0.73673321     0.04500
C4995       C  0.95126334  0.85189995  0.74634395    -0.07800
C4996       C  0.92383210  0.85233757  0.75790568    -0.08540
C4997       C  0.90682745  0.87831694  0.75822593    -0.03090
C4998       C  0.91738388  0.90467735  0.74580362     0.03730
N4999       N  0.90034143  0.93186912  0.74365665     0.66230
H5000       H  0.95399393  0.92502796  0.72861604     0.15130
H5001       H  0.91508270  0.83188232  0.76499847     0.14840
N5002       N  0.96751237  0.82412393  0.74529976     0.73940
O5003       O  0.90414693  0.95006160  0.72179305    -0.39510
O5004       O  0.88319499  0.93900356  0.76494929    -0.39460
O5005       O  0.98630584  0.81963733  0.72501380    -0.40160
O5006       O  0.96154812  0.80306733  0.76298403    -0.40230
C5007       C  0.69019256  0.91130569  0.75072542    -0.12510
C5008       C  0.70869533  0.88699033  0.74460060     0.04500
C5009       C  0.69857189  0.86358425  0.72630736    -0.07800
C5010       C  0.67105208  0.86537933  0.71408732    -0.08540
C5011       C  0.65165188  0.88661039  0.72491550    -0.03090
C5012       C  0.66131788  0.91100667  0.74185864     0.03730
N5013       N  0.64180803  0.93458294  0.75137622     0.66230
H5014       H  0.69797640  0.92984820  0.76345377     0.15130
H5015       H  0.66348194  0.84700614  0.70083901     0.14840
N5016       N  0.71495893  0.83653526  0.72200088     0.73940
O5017       O  0.64937682  0.95337971  0.77111397    -0.39510
O5018       O  0.61747111  0.93786312  0.73866187    -0.39460
O5019       O  0.72379360  0.82146665  0.74568488    -0.40160
O5020       O  0.71533073  0.82489872  0.69519807    -0.40230
C5021       C  0.99271122  0.51005299  0.73636698    -0.12510
C5022       C  0.99043518  0.52601414  0.76453890     0.04500
C5023       C  0.50676270  0.51513935  0.79107428    -0.07800
C5024       C  0.52328303  0.48828813  0.78914660    -0.08540
C5025       C  0.52515625  0.97229224  0.76101581    -0.03090
C5026       C  0.51010531  0.48400399  0.73423041     0.03730
N5027       N  0.01223631  0.96975210  0.70445664     0.66230
H5028       H  0.98152222  0.51835340  0.71532497     0.15130
H5029       H  0.53400180  0.47928052  0.81016269     0.14840
N5030       N  0.50574501  0.53008775  0.82063193     0.73940
O5031       O  0.99007770  0.96238066  0.69021860    -0.39510
O5032       O  0.53465161  0.97161120  0.68924799    -0.39460
O5033       O  0.98216208  0.53802220  0.83196961    -0.40160
O5034       O  0.52790903  0.53140939  0.83752812    -0.40230
C5035       C  0.88273197  0.77447225  0.73979945    -0.12510
C5036       C  0.85654459  0.78010688  0.75442930     0.04500
C5037       C  0.84781807  0.75910140  0.77640693    -0.07800
C5038       C  0.86529505  0.73360907  0.78306231    -0.08540
C5039       C  0.89074167  0.72735670  0.76718403    -0.03090
C5040       C  0.89995417  0.74890517  0.74609601     0.03730
N5041       N  0.92680947  0.74559918  0.73103800     0.66230
H5042       H  0.89057568  0.79057100  0.72378404     0.15130
H5043       H  0.85792556  0.71762580  0.79951847     0.14840
N5044       N  0.82089543  0.76244929  0.79122886     0.73940
O5045       O  0.92878702  0.75260176  0.70239349    -0.39510
O5046       O  0.94914309  0.74063053  0.74746212    -0.39460
O5047       O  0.79857571  0.76615137  0.77451515    -0.40160
O5048       O  0.81893918  0.75632051  0.82009603    -0.40230
C5049       C  0.72119652  0.00274054  0.73036653    -0.12510
C5050       C  0.72743206  0.01713068  0.75864149     0.04500
C5051       C  0.75224347  0.00779371  0.77603657    -0.07800
C5052       C  0.77062027  0.98571205  0.76399134    -0.08540
C5053       C  0.76442980  0.97120783  0.73575311    -0.03090
C5054       C  0.73943640  0.98027915  0.71849651     0.03730
N5055       N  0.73254308  0.96764430  0.68856167     0.66230
H5056       H  0.70283368  0.01023232  0.71622794     0.15130
H5057       H  0.78908539  0.97856956  0.77813500     0.14840
N5058       N  0.75893662  0.52004315  0.80624021     0.73940
O5059       O  0.70698753  0.96553111  0.68020669    -0.39510
O5060       O  0.75157666  0.96274865  0.66861049    -0.39460
O5061       O  0.73997974  0.52364621  0.82652589    -0.40160
O5062       O  0.78432855  0.52396407  0.81406661    -0.40230
C5063       C  0.65488515  0.73554105  0.73924270    -0.12510
C5064       C  0.64142426  0.71341227  0.75532506     0.04500
C5065       C  0.61518755  0.72122568  0.77001883    -0.07800
C5066       C  0.60389928  0.75033627  0.76866865    -0.08540
C5067       C  0.61744409  0.77219049  0.75270003    -0.03090
C5068       C  0.64335935  0.76473488  0.73826509     0.03730
N5069       N  0.65987083  0.78725085  0.72619140     0.66230
H5070       H  0.67508334  0.73044164  0.72846478     0.15130
H5071       H  0.58394785  0.75586046  0.77986821     0.14840
N5072       N  0.59910320  0.70016521  0.78598589     0.73940
O5073       O  0.66561106  0.80826475  0.74396073    -0.39510
O5074       O  0.67316008  0.78330132  0.70100785    -0.39460
O5075       O  0.59041620  0.70581152  0.81329588    -0.40160
O5076       O  0.58756163  0.68050155  0.77028621    -0.40230
C5077       C  0.78805654  0.64027385  0.72570689    -0.12510
C5078       C  0.78189377  0.61044536  0.72593933     0.04500
C5079       C  0.80390589  0.58856142  0.72301438    -0.07800
C5080       C  0.83185562  0.59708243  0.72440188    -0.08540
C5081       C  0.83785882  0.62677362  0.72821136    -0.03090
C5082       C  0.81576646  0.64870065  0.72692266     0.03730
N5083       N  0.82067796  0.67906021  0.73190577     0.66230
H5084       H  0.77112673  0.65718533  0.72784199     0.15130
H5085       H  0.84905190  0.58031162  0.72441301     0.14840
N5086       N  0.79851208  0.55784114  0.72168358     0.73940
O5087       O  0.80926542  0.69833852  0.71348378    -0.39510
O5088       O  0.83012476  0.68685518  0.75834583    -0.39460
O5089       O  0.78048476  0.54893921  0.70216004    -0.40160
O5090       O  0.81474646  0.53915398  0.73623042    -0.40230
C5091       C  0.57109398  0.63974178  0.71558476    -0.12510
C5092       C  0.58776962  0.61499486  0.72564990     0.04500
C5093       C  0.57439362  0.58887130  0.73380643    -0.07800
C5094       C  0.54489719  0.58891152  0.73315311    -0.08540
C5095       C  0.52846477  0.61482046  0.72723781    -0.03090
C5096       C  0.54169944  0.64070622  0.71806413     0.03730
N5097       N  0.52614119  0.66825884  0.71162679     0.66230
H5098       H  0.58107888  0.65971552  0.70920570     0.15130
H5099       H  0.53483177  0.56928456  0.74058299     0.14840
N5100       N  0.58987570  0.56266491  0.74483837     0.73940
O5101       O  0.53333712  0.68417552  0.68904441    -0.39510
O5102       O  0.50978683  0.67955627  0.73182597    -0.39460
O5103       O  0.59927607  0.56162108  0.77287483    -0.40160
O5104       O  0.58558385  0.53868952  0.73129699    -0.40230
C5105       C  0.54385567  0.84428070  0.88409514    -0.12510
C5106       C  0.53462806  0.82800930  0.85850207     0.04500
C5107       C  0.00797839  0.81532721  0.85994288    -0.07800
C5108       C  0.98984047  0.82302948  0.88490072    -0.08540
C5109       C  0.99727959  0.84379221  0.90744650    -0.03090
C5110       C  0.52526706  0.85396422  0.90750331     0.03730
N5111       N  0.53532230  0.87529288  0.92942826     0.66230
H5112       H  0.56438741  0.85361596  0.88330559     0.15130
H5113       H  0.96878868  0.81485739  0.88515135     0.14840
N5114       N  0.99854433  0.79604100  0.83556624     0.73940
O5115       O  0.56137905  0.87459509  0.93656940    -0.39510
O5116       O  0.02074206  0.89864611  0.93486854    -0.39460
O5117       O  0.01625653  0.78155050  0.81914040    -0.40160
O5118       O  0.97261203  0.79138556  0.83218431    -0.40230
C5119       C  0.51798588  0.84097418  0.58539073    -0.12510
C5120       C  0.98861891  0.84164451  0.58950414     0.04500
C5121       C  0.97848429  0.83743896  0.62010931    -0.07800
C5122       C  0.99766780  0.83631778  0.64590405    -0.08540
C5123       C  0.52702519  0.83790351  0.64238339    -0.03090
C5124       C  0.53762727  0.83874225  0.61113894     0.03730
N5125       N  0.56744355  0.83945499  0.60444769     0.66230
H5126       H  0.52564596  0.84464371  0.56205220     0.15130
H5127       H  0.98940625  0.83512812  0.66931529     0.14840
N5128       N  0.94873586  0.83503397  0.62545248     0.73940
O5129       O  0.57592247  0.83443073  0.57692089    -0.39510
O5130       O  0.58523021  0.84721753  0.62479431    -0.39460
O5131       O  0.93321715  0.82374698  0.60480747    -0.40160
O5132       O  0.93874764  0.84012458  0.65231781    -0.40230
C5133       C  0.82975026  0.90168168  0.87316772    -0.12510
C5134       C  0.83544500  0.92162023  0.84942223     0.04500
C5135       C  0.86226956  0.93414403  0.85021688    -0.07800
C5136       C  0.88319765  0.92400116  0.87291249    -0.08540
C5137       C  0.87872954  0.90031687  0.89332648    -0.03090
C5138       C  0.85124852  0.88903536  0.89312030     0.03730
N5139       N  0.84465419  0.86362226  0.91117164     0.66230
H5140       H  0.80927077  0.89237840  0.87299775     0.15130
H5141       H  0.90365160  0.93352498  0.87355099     0.14840
N5142       N  0.86848683  0.95699230  0.82822955     0.73940
O5143       O  0.82015567  0.86260998  0.92200834    -0.39510
O5144       O  0.85857934  0.83957221  0.90707636    -0.39460
O5145       O  0.84880521  0.97063358  0.81262774    -0.40160
O5146       O  0.89338349  0.96530658  0.82610432    -0.40230
C5147       C  0.84882385  0.90341191  0.58422332    -0.12510
C5148       C  0.87800306  0.90178608  0.59169319     0.04500
C5149       C  0.88708983  0.90745510  0.62269548    -0.07800
C5150       C  0.86690582  0.91071059  0.64610472    -0.08540
C5151       C  0.83757187  0.90922158  0.63972422    -0.03090
C5152       C  0.82824047  0.90816288  0.60775011     0.03730
N5153       N  0.79880563  0.91345995  0.59858568     0.66230
H5154       H  0.84220949  0.90109417  0.55984034     0.15130
H5155       H  0.87461635  0.91349958  0.67002055     0.14840
N5156       N  0.91662015  0.90947022  0.63106716     0.73940
O5157       O  0.78123286  0.92398566  0.61796487    -0.39510
O5158       O  0.79132954  0.91304202  0.56987764    -0.39460
O5159       O  0.92542766  0.90337731  0.65874965    -0.40160
O5160       O  0.93302684  0.92147009  0.61251703    -0.40230
C5161       C  0.73244802  0.86830778  0.88632099    -0.12510
C5162       C  0.73742992  0.84682055  0.90968001     0.04500
C5163       C  0.76124369  0.82614963  0.90584635    -0.07800
C5164       C  0.77895497  0.82897337  0.87904097    -0.08540
C5165       C  0.77344226  0.85088567  0.85572956    -0.03090
C5166       C  0.74929396  0.87039016  0.85996919     0.03730
N5167       N  0.74110549  0.89332384  0.83802203     0.66230
H5168       H  0.71480416  0.88436292  0.88847223     0.15130
H5169       H  0.79722088  0.81389635  0.87621227     0.14840
N5170       N  0.76870099  0.80294014  0.92845773     0.73940
O5171       O  0.72024475  0.88953097  0.81982724    -0.39510
O5172       O  0.74675899  0.91930430  0.84484841    -0.39460
O5173       O  0.75320931  0.79789731  0.95138818    -0.40160
O5174       O  0.79080119  0.78650365  0.92502394    -0.40230
C5175       C  0.79404767  0.83369765  0.61838465    -0.12510
C5176       C  0.78648390  0.82093593  0.64675822     0.04500
C5177       C  0.76070006  0.80629589  0.64719623    -0.07800
C5178       C  0.73973444  0.81315207  0.62348026    -0.08540
C5179       C  0.74587016  0.83072493  0.59754813    -0.03090
C5180       C  0.77437978  0.83698511  0.59322166     0.03730
N5181       N  0.78381913  0.84360088  0.56246526     0.66230
H5182       H  0.81475283  0.84241193  0.61631936     0.15130
H5183       H  0.71862116  0.80547925  0.62562528     0.14840
N5184       N  0.75577847  0.78472795  0.67122816     0.73940
O5185       O  0.80688954  0.85564563  0.55899350    -0.39510
O5186       O  0.77324753  0.83024013  0.53956455    -0.39460
O5187       O  0.73377961  0.77028840  0.66989160    -0.40160
O5188       O  0.77510387  0.77682869  0.69097123    -0.40230
C5189       C  0.64542753  0.89039559  0.88058152    -0.12510
C5190       C  0.63648648  0.90318197  0.90853726     0.04500
C5191       C  0.60993311  0.91931511  0.90868071    -0.07800
C5192       C  0.59156348  0.91869337  0.88181161    -0.08540
C5193       C  0.60010403  0.90381498  0.85440608    -0.03090
C5194       C  0.62795999  0.89029100  0.85403277     0.03730
N5195       N  0.63834543  0.87348743  0.82800424     0.66230
H5196       H  0.66563462  0.87796858  0.87999233     0.15130
H5197       H  0.57088518  0.93014252  0.88212308     0.14840
N5198       N  0.60186030  0.93708469  0.93505473     0.73940
O5199       O  0.65784940  0.88341116  0.81197710    -0.39510
O5200       O  0.63480857  0.84622271  0.82754505    -0.39460
O5201       O  0.61927563  0.95429152  0.94657493    -0.40160
O5202       O  0.57613490  0.94053262  0.94214342    -0.40230
C5203       C  0.62305458  0.91752013  0.65521009    -0.12510
C5204       C  0.59394888  0.91498114  0.64877133     0.04500
C5205       C  0.58484347  0.91315776  0.61702372    -0.07800
C5206       C  0.60525952  0.90703483  0.59388649    -0.08540
C5207       C  0.63441859  0.90596370  0.60110789    -0.03090
C5208       C  0.64343813  0.91351450  0.63164045     0.03730
N5209       N  0.67314457  0.91474091  0.63942595     0.66230
H5210       H  0.63000046  0.92086699  0.67918827     0.15130
H5211       H  0.59836782  0.90087722  0.57065547     0.14840
N5212       N  0.55521817  0.91501444  0.60840862     0.73940
O5213       O  0.68207365  0.91085908  0.66740203    -0.39510
O5214       O  0.69040063  0.92167314  0.61877294    -0.39300
O5215       O  0.53843004  0.93271084  0.62247568    -0.40160
O5216       O  0.54661233  0.90301652  0.58357547    -0.40230
C5217       C  0.82547270  0.90323228  0.98060734    -0.12510
C5218       C  0.83764232  0.87578914  0.49009362     0.04500
C5219       C  0.82086003  0.85114180  0.49060853    -0.07800
C5220       C  0.79207113  0.85502271  0.48334486    -0.08540
C5221       C  0.77941257  0.88296983  0.97795691    -0.03090
C5222       C  0.79639742  0.90703633  0.97401643     0.03730
N5223       N  0.78486094  0.93476451  0.96203673     0.66230
H5224       H  0.83887499  0.92153766  0.97767089     0.15130
H5225       H  0.77900351  0.83634833  0.48417025     0.14840
N5226       N  0.83237047  0.82217321  0.49848158     0.73940
O5227       O  0.79845929  0.95753955  0.96606132    -0.39510
O5228       O  0.76491026  0.93540947  0.94179611    -0.39460
O5229       O  0.84309327  0.81724373  0.52557962    -0.40160
O5230       O  0.82518959  0.80066254  0.48214573    -0.40230
C5231       C  0.57179723  0.84669655  0.99871897    -0.12510
C5232       C  0.58995080  0.86951292  0.00377658     0.04500
C5233       C  0.57832068  0.89825854  0.51051400    -0.07800
C5234       C  0.54880713  0.90266186  0.51262999    -0.08540
C5235       C  0.53073573  0.87981778  0.50719508    -0.03090
C5236       C  0.54250599  0.85143234  0.99973627     0.03730
N5237       N  0.52536574  0.82724101  0.99229062     0.66230
H5238       H  0.58048402  0.82465057  0.99399924     0.15130
H5239       H  0.53967319  0.92457626  0.51702438     0.14840
N5240       N  0.59544950  0.92332197  0.51456067     0.73940
O5241       O  0.53225400  0.81006211  0.97018012    -0.39510
O5242       O  0.00663462  0.81990337  0.51092826    -0.39460
O5243       O  0.61925915  0.92420848  0.00202678    -0.40160
O5244       O  0.58560033  0.94605440  0.52832704    -0.40230
C5245       C  0.76528498  0.66191180  0.87482971    -0.12510
C5246       C  0.75499271  0.65904483  0.90518647     0.04500
C5247       C  0.72528766  0.66345905  0.90899147    -0.07800
C5248       C  0.70676465  0.66282822  0.88212951    -0.08540
C5249       C  0.71730071  0.66284435  0.85148560    -0.03090
C5250       C  0.74700943  0.66611024  0.84845480     0.03730
N5251       N  0.75917398  0.67267714  0.81865971     0.66230
H5252       H  0.78796931  0.66048486  0.87158654     0.15130
H5253       H  0.68412894  0.66242725  0.88508147     0.14840
N5254       N  0.71384528  0.67085107  0.93908531     0.73940
O5255       O  0.74799426  0.69309528  0.80148521    -0.39510
O5256       O  0.78307129  0.66118286  0.81155483    -0.39460
O5257       O  0.72927632  0.68231729  0.95969900    -0.40160
O5258       O  0.68736610  0.67268489  0.94234788    -0.40230
C5259       C  0.72801855  0.66169692  0.59161451    -0.12510
C5260       C  0.75712711  0.65367479  0.59565048     0.04500
C5261       C  0.76755521  0.64818932  0.62648037    -0.07800
C5262       C  0.74879431  0.64703936  0.65153642    -0.08540
C5263       C  0.71939191  0.65241262  0.64737589    -0.03090
C5264       C  0.70919415  0.66154620  0.61715111     0.03730
N5265       N  0.67976151  0.66897943  0.61147443     0.66230
H5266       H  0.71945301  0.66606552  0.56826522     0.15130
H5267       H  0.75727345  0.64099098  0.67446883     0.14840
N5268       N  0.79730766  0.64325813  0.63242978     0.73940
O5269       O  0.67190075  0.69428555  0.60124697    -0.39510
O5270       O  0.66169047  0.64998818  0.61523089    -0.39460
O5271       O  0.81401196  0.66079892  0.62084037    -0.40160
O5272       O  0.80658422  0.62422825  0.65239027    -0.40230
C5273       C  0.89479039  0.59348825  0.90759764    -0.12510
C5274       C  0.86592466  0.59317707  0.89924685     0.04500
C5275       C  0.85776299  0.58482773  0.86872557    -0.07800
C5276       C  0.87869846  0.57930289  0.84657522    -0.08540
C5277       C  0.90756187  0.58336464  0.85341488    -0.03090
C5278       C  0.91595776  0.58840506  0.88505555     0.03730
N5279       N  0.94535401  0.58804498  0.89468422     0.66230
H5280       H  0.90073608  0.59804621  0.93177072     0.15130
H5281       H  0.87188599  0.57396215  0.82288273     0.14840
N5282       N  0.82843271  0.58373194  0.85912402     0.73940
O5283       O  0.95265355  0.60006432  0.92004244    -0.39510
O5284       O  0.96335271  0.57139988  0.88107060    -0.39460
O5285       O  0.82062454  0.59079818  0.83134225    -0.40160
O5286       O  0.81067492  0.57343031  0.87731386    -0.40230
C5287       C  0.86789930  0.62855172  0.60366536    -0.12510
C5288       C  0.86224431  0.60305333  0.58746801     0.04500
C5289       C  0.87366224  0.57559066  0.59949057    -0.07800
C5290       C  0.88920267  0.57492561  0.62858668    -0.08540
C5291       C  0.89264277  0.60084069  0.64595498    -0.03090
C5292       C  0.88089658  0.62788080  0.63298552     0.03730
N5293       N  0.87901639  0.65492623  0.65007805     0.66230
H5294       H  0.85993670  0.64982816  0.59471125     0.15130
H5295       H  0.89852034  0.55423022  0.63769058     0.14840
N5296       N  0.87105784  0.54881909  0.58210799     0.73940
O5297       O  0.88794189  0.67776635  0.63764138    -0.39510
O5298       O  0.86024590  0.65805057  0.67054351    -0.39460
O5299       O  0.87066443  0.54926400  0.55238263    -0.40160
O5300       O  0.87296992  0.52426884  0.59622631    -0.40230
C5301       C  0.76039199  0.01060896  0.53596010    -0.12510
C5302       C  0.76936611  0.51966441  0.50625593     0.04500
C5303       C  0.75758862  0.50696827  0.97894694    -0.07800
C5304       C  0.73808745  0.98514757  0.98229065    -0.08540
C5305       C  0.73095061  0.97439681  0.01198916    -0.03090
C5306       C  0.74145097  0.98825109  0.53910104     0.03730
N5307       N  0.73147660  0.98165177  0.56974236     0.66230
H5308       H  0.76775054  0.02143780  0.55700962     0.15130
H5309       H  0.72944197  0.47555493  0.96118246     0.14840
N5310       N  0.76460704  0.51599135  0.94766331     0.73940
O5311       O  0.74220676  0.95968973  0.58482813    -0.39510
O5312       O  0.71664043  0.00092576  0.58412678    -0.39460
O5313       O  0.79004909  0.51428574  0.93927717    -0.40160
O5314       O  0.74538896  0.51883975  0.92661275    -0.40230
C5315       C  0.86272466  0.74217604  0.96266514    -0.12510
C5316       C  0.85265066  0.72861921  0.48976938     0.04500
C5317       C  0.86216071  0.73845112  0.51954342    -0.07800
C5318       C  0.88034738  0.76150545  0.52155027    -0.08540
C5319       C  0.88997036  0.77568483  0.49465386    -0.03090
C5320       C  0.88167225  0.76507210  0.96463615     0.03730
N5321       N  0.89292678  0.77623427  0.93607374     0.66230
H5322       H  0.85666917  0.73411709  0.93969587     0.15130
H5323       H  0.88650516  0.76869879  0.54484642     0.14840
N5324       N  0.85461301  0.72464838  0.54829410     0.73940
O5325       O  0.91910656  0.77977013  0.93435306    -0.39510
O5326       O  0.87798993  0.77719366  0.41105534    -0.39460
O5327       O  0.86753562  0.70083357  0.05687709    -0.40160
O5328       O  0.84028096  0.73927972  0.56809204    -0.40230
C5329       C  0.98340140  0.67097476  0.90715809    -0.12510
C5330       C  0.50552403  0.64899838  0.90505552     0.04500
C5331       C  0.50963087  0.63422192  0.87641656    -0.07800
C5332       C  0.49160232  0.64105090  0.85117880    -0.08540
C5333       C  0.96792034  0.66080521  0.85362095    -0.03090
C5334       C  0.96397216  0.67692528  0.88171746     0.03730
N5335       N  0.94151366  0.69954069  0.88464081     0.66230
H5336       H  0.98096152  0.68296299  0.92895121     0.15130
H5337       H  0.49565008  0.62922322  0.82959663     0.14840
N5338       N  0.53211765  0.61225869  0.87202075     0.73940
O5339       O  0.93844353  0.71327437  0.91018354    -0.39510
O5340       O  0.92561590  0.70719143  0.86142657    -0.39460
O5341       O  0.52978553  0.58674045  0.88311160    -0.40160
O5342       O  0.54885116  0.61545619  0.84969694    -0.40230
C5343       C  0.00904553  0.66101469  0.61428972    -0.12510
C5344       C  0.52911257  0.63701203  0.61493385     0.04500
C5345       C  0.53002601  0.61730472  0.64006300    -0.07800
C5346       C  0.50743336  0.61748682  0.65979893    -0.08540
C5347       C  0.98757318  0.64159739  0.66113913    -0.03090
C5348       C  0.98854594  0.66425578  0.63802366     0.03730
N5349       N  0.96784538  0.68865642  0.63614000     0.66230
H5350       H  0.00815622  0.67596228  0.59430235     0.15130
H5351       H  0.50644923  0.59868558  0.67512378     0.14840
N5352       N  0.55391445  0.59690371  0.64540916     0.73940
O5353       O  0.97295673  0.71158978  0.62090247    -0.39510
O5354       O  0.94334205  0.68634433  0.64651915    -0.39460
O5355       O  0.57851610  0.60582042  0.64276815    -0.40160
O5356       O  0.55084250  0.57214915  0.65803864    -0.40230
C5357       C  0.65466268  0.56632190  0.88390161    -0.12510
C5358       C  0.65198808  0.58596546  0.85799015     0.04500
C5359       C  0.62828779  0.60638127  0.85747387    -0.07800
C5360       C  0.61076792  0.60926722  0.88305189    -0.08540
C5361       C  0.61373037  0.59148028  0.91007528    -0.03090
C5362       C  0.63519385  0.56774564  0.90948606     0.03730
N5363       N  0.63803988  0.54498829  0.93344554     0.66230
H5364       H  0.67163565  0.54935580  0.88382605     0.15130
H5365       H  0.59389216  0.62629145  0.88105545     0.14840
N5366       N  0.62049793  0.62454450  0.83080962     0.73940
O5367       O  0.65201304  0.52117040  0.92801570    -0.39510
O5368       O  0.62745942  0.54837888  0.96022331    -0.39460
O5369       O  0.60444232  0.61426333  0.81007306    -0.40160
O5370       O  0.61979102  0.65208946  0.83425074    -0.40230
C5371       C  0.67376467  0.57877513  0.61718629    -0.12510
C5372       C  0.66174666  0.56947138  0.64509354     0.04500
C5373       C  0.63434507  0.55836698  0.64355334    -0.07800
C5374       C  0.61800908  0.56209028  0.61526865    -0.08540
C5375       C  0.62852171  0.57631874  0.58895384    -0.03090
C5376       C  0.65765526  0.58163406  0.58897280     0.03730
N5377       N  0.67084973  0.59030906  0.56056188     0.66230
H5378       H  0.69524393  0.58585921  0.61792693     0.15130
H5379       H  0.59607700  0.55650246  0.61473057     0.14840
N5380       N  0.62273353  0.54379518  0.67019858     0.73940
O5381       O  0.69392886  0.60290084  0.56177679    -0.39510
O5382       O  0.66244401  0.58031657  0.53458006    -0.39460
O5383       O  0.63745830  0.53863947  0.69496795    -0.40160
O5384       O  0.59924367  0.53215061  0.66739684    -0.40230
C5385       C  0.51080018  0.00700989  0.96720885    -0.12510
C5386       C  0.51205038  0.52319276  0.49538732     0.04500
C5387       C  0.99397206  0.51561379  0.52002840    -0.07800
C5388       C  0.97477183  0.49334447  0.51518192    -0.08540
C5389       C  0.97330812  0.97773911  0.48672026    -0.03090
C5390       C  0.99158619  0.98506966  0.96232992     0.03730
N5391       N  0.99053445  0.97113527  0.93207360     0.66230
H5392       H  0.52418967  0.01227963  0.94785114     0.15130
H5393       H  0.96177164  0.48721292  0.53456384     0.14840
N5394       N  0.99488585  0.52953610  0.55022683     0.73940
O5395       O  0.51305376  0.96547620  0.91735074    -0.39510
O5396       O  0.96703108  0.96842272  0.41807664    -0.39460
O5397       O  0.97224126  0.53432206  0.06498355    -0.40160
O5398       O  0.01818688  0.53048099  0.56510232    -0.40230
C5399       C  0.95247544  0.63929755  0.98350841    -0.12510
C5400       C  0.96554454  0.62838743  0.01132279     0.04500
C5401       C  0.94886961  0.62517723  0.53853495    -0.07800
C5402       C  0.91932833  0.63121677  0.53607323    -0.08540
C5403       C  0.90626848  0.64049128  0.00755542    -0.03090
C5404       C  0.92339859  0.64628222  0.98159591     0.03730
N5405       N  0.91167219  0.66034702  0.95352502     0.66230
H5406       H  0.96520412  0.64308970  0.96320293     0.15130
H5407       H  0.90638619  0.62711841  0.55603625     0.14840
N5408       N  0.96087062  0.61449948  0.56819646     0.73940
O5409       O  0.89598077  0.68352532  0.95558799    -0.39510
O5410       O  0.92029176  0.65247776  0.92684311    -0.39460
O5411       O  0.98059495  0.59468829  0.56906758    -0.40160
O5412       O  0.94910223  0.62180359  0.59358927    -0.40230
C5413       C  0.66759229  0.60839431  0.97011308    -0.12510
C5414       C  0.65745131  0.63150621  0.48860746     0.04500
C5415       C  0.67604750  0.64821749  0.50621830    -0.07800
C5416       C  0.70487312  0.64175747  0.50392166    -0.08540
C5417       C  0.71523049  0.61818268  0.48560586    -0.03090
C5418       C  0.69626807  0.60113187  0.96875467     0.03730
N5419       N  0.70538548  0.57527850  0.95212005     0.66230
H5420       H  0.65306433  0.59522337  0.95800780     0.15130
H5421       H  0.71924446  0.65491065  0.51702535     0.14840
N5422       N  0.66622155  0.67004938  0.52813999     0.73940
O5423       O  0.71204936  0.57721266  0.42362299    -0.39510
O5424       O  0.70228006  0.55032864  0.96425746    -0.39460
O5425       O  0.64885014  0.66330433  0.54863589    -0.40160
O5426       O  0.67965148  0.69296410  0.03198763    -0.40230
C5427       C  0.61543533  0.76834176  0.53845758    -0.12510
C5428       C  0.63985388  0.76777214  0.01971482     0.04500
C5429       C  0.64432661  0.74421490  0.99867817    -0.07800
C5430       C  0.62477479  0.72229926  0.99699606    -0.08540
C5431       C  0.60126528  0.72205588  0.01667141    -0.03090
C5432       C  0.59607393  0.74582006  0.53732571     0.03730
N5433       N  0.57116497  0.74814205  0.55635617     0.66230
H5434       H  0.61115782  0.78671123  0.55402103     0.15130
H5435       H  0.62890052  0.70466410  0.98068162     0.14840
N5436       N  0.66885702  0.74157148  0.97936301     0.73940
O5437       O  0.56176618  0.77297766  0.56579958    -0.39510
O5438       O  0.55817105  0.72570229  0.06363712    -0.39460
O5439       O  0.69330307  0.74195111  0.49180825    -0.40160
O5440       O  0.66633072  0.73430692  0.95085879    -0.40230
loop_ 
_geom_bond_atom_site_label_1 
_geom_bond_atom_site_label_2 
_geom_bond_distance 
_geom_bond_site_symmetry_2 
_ccdc_geom_bond_type 
O1          Co21   2.015       .  S
O1          C689   1.275       .  A
O2          Co22   2.028       .  S
O2         C2730   1.262   1_455  A
O3          Co23   1.987       .  S
O3           C11   1.273       .  A
O4          Co24   1.883       .  S
O4           C12   1.278       .  A
O5          Co22   1.989       .  S
O5           C11   1.276       .  A
O6          Co21   2.062       .  S
O6           C12   1.292       .  A
O7          Co24   1.983       .  S
O7         C3410   1.246   1_455  A
O8          Co23   1.981       .  S
O8            C9   1.271       .  A
C9          O681   1.275       .  A
C9          C671   1.484       .  S
C10        O2722   1.262       .  A
C10        O3407   1.246       .  A
C10         C640   1.481       .  S
C11         C570   1.471       .  S
C12         C584   1.460       .  S
O13         Co21   1.900       .  S
O13          C26   1.269       .  A
O14         Co22   2.023       .  S
O14          C27   1.276       .  A
O15         Co23   1.982       .  S
O15         C708   1.257       .  A
O16         Co24   2.156       .  S
O16          C29   1.319   1_554  A
O17         Co22   1.852       .  S
O17         C709   1.277       .  A
O18         Co21   1.954       .  S
O18          C28   1.250   1_554  A
O19         Co24   2.115       .  S
O19          C26   1.307       .  A
O20         Co23   2.000       .  S
O20          C27   1.278       .  A
Co21         O25   1.945   1_554  S
Co22        O705   1.880       .  S
Co23        O705   2.011       .  S
Co24         O25   2.033   1_554  S
O25        Co702   1.880       .  S
O25        Co703   2.011       .  S
C26         C615   1.494       .  S
C27         C601   1.526       .  S
C28         O695   1.257       .  A
C28         C654   1.432       .  S
C29         O697   1.277       .  A
C29         C626   1.504       .  S
O30         Co50   1.986       .  S
O30          C38   1.269       .  A
O31         Co51   1.957       .  S
O31         C719   1.244       .  A
O32         Co52   1.973       .  S
O32          C40   1.272       .  A
O33         Co53   2.057       .  S
O33          C41   1.299       .  A
O34         Co51   2.013       .  S
O34          C40   1.283       .  A
O35         Co50   1.964       .  S
O35          C41   1.259       .  A
O36         Co53   2.066       .  S
O36          C39   1.280       .  A
O37         Co52   1.984       .  S
O37         C718   1.271       .  A
C38         O717   1.271   1_554  A
C38         C542   1.479       .  S
C39         O711   1.244   1_554  A
C39        C1323   1.484       .  S
C40         C514   1.466       .  S
C41         C528   1.485       .  S
O42         Co50   1.889       .  S
O42          C55   1.266       .  A
O43         Co51   2.025       .  S
O43          C56   1.271       .  A
O44         Co52   1.972       .  S
O44         C737   1.260       .  A
O45         Co53   1.981       .  S
O45         C738   1.291   1_554  A
O46         Co51   1.986       .  S
O46          C58   1.294       .  A
O47         Co50   1.944       .  S
O47          C57   1.256   1_554  A
O48         Co53   2.146       .  S
O48          C55   1.310       .  A
O49         Co52   2.010       .  S
O49          C56   1.268       .  A
Co50         O54   1.891   1_554  S
Co51        O734   1.999       .  S
Co52        O734   2.023       .  S
Co53         O54   2.044   1_554  S
O54        Co731   1.999       .  S
O54        Co732   2.023       .  S
C55         C500   1.500       .  S
C56         C486   1.505       .  S
C57         O724   1.260       .  A
C57         C657   1.452       .  S
C58         O725   1.291       .  A
C58        C1236   1.497       .  S
O59         Co79   1.988       .  S
O59         C747   1.270       .  A
O60         Co80   1.994       .  S
O60          C68   1.266       .  A
O61         Co81   1.997       .  S
O61          C69   1.282       .  A
O62         Co82   2.003       .  S
O62          C70   1.270       .  A
O63         Co80   2.133       .  S
O63          C69   1.320       .  A
O64         Co79   2.007       .  S
O64          C70   1.267       .  A
O65         Co82   1.992       .  S
O65         C748   1.253   1_554  A
O66         Co81   1.988       .  S
O66          C67   1.276       .  A
C67         O739   1.270       .  A
C67         C668   1.496       .  S
C68         O745   1.253       .  A
C68         C461   1.457       .  S
C69         C402   1.518       .  S
C70         C419   1.500       .  S
O71         Co79   1.875       .  S
O71          C84   1.273       .  A
O72         Co80   1.992       .  S
O72          C85   1.258       .  A
O73         Co81   1.997       .  S
O73          C86   1.268       .  A
O74         Co82   1.972       .  S
O74         C767   1.289       .  A
O75         Co80   1.985       .  S
O75          C87   1.291       .  A
O76         Co79   1.986       .  S
O76         C766   1.256       .  A
O77         Co82   2.133       .  S
O77          C84   1.314       .  A
O78         Co81   1.985       .  S
O78          C85   1.264       .  A
Co79        O763   1.873       .  S
Co80         O83   1.983       .  S
Co81         O83   2.050       .  S
Co82        O763   2.075       .  S
O83        Co759   1.873       .  S
O83        Co762   2.075       .  S
C84         C447   1.483       .  S
C85         C430   1.485       .  S
C86         O756   1.256       .  A
C86         C472   1.474       .  S
C87         O754   1.289       .  A
C87         C545   1.487       .  S
O88        Co108   1.979       .  S
O88         C776   1.267   1_554  A
O89        Co109   1.972       .  S
O89         C777   1.240       .  A
O90        Co110   2.111       .  S
O90          C98   1.306       .  A
O91        Co111   2.025       .  S
O91          C99   1.286       .  A
O92        Co109   1.919       .  S
O92          C98   1.273       .  A
O93        Co108   1.987       .  S
O93          C99   1.276       .  A
O94        Co111   2.002       .  S
O94          C97   1.249   1_554  A
O95        Co110   1.995       .  S
O95          C96   1.268       .  A
C96         O768   1.267       .  A
C96        C1309   1.495       .  S
C97         O769   1.240       .  A
C97         C458   1.455       .  S
C98         C377   1.506       .  S
C99         C388   1.478       .  S
O100       Co108   2.008       .  S
O100        C113   1.269       .  A
O101       Co109   2.113       .  S
O101        C114   1.303       .  A
O102       Co110   1.986       .  S
O102        C795   1.257       .  A
O103       Co111   1.871       .  S
O103        C116   1.286   1_554  A
O104       Co109   2.137       .  S
O104        C796   1.316       .  A
O105       Co108   2.015       .  S
O105        C115   1.272       .  A
O106       Co111   2.002       .  S
O106        C113   1.272       .  A
O107       Co110   1.898       .  S
O107        C114   1.260       .  A
Co108       O112   2.018       .  S
Co109       O792   2.032       .  S
Co110       O792   1.973       .  S
Co111       O112   1.900       .  S
O112       Co789   2.032   1_554  S
O112       Co790   1.973   1_554  S
C113        C360   1.492       .  S
C114        C349   1.483       .  S
C115        O782   1.257   1_554  A
C115       C3195   1.475       .  S
C116        O784   1.316       .  A
C116        C559   1.500       .  S
O117       Co137   2.103       .  S
O117        C125   1.294       .  A
O118       Co138   2.131       .  S
O118        C126   1.284       .  A
O119       Co139   1.997       .  S
O119        C127   1.277       .  A
O120       Co140   1.948       .  S
O120        C128   1.253       .  A
O121       Co138   1.988       .  S
O121        C127   1.265       .  A
O122       Co137   2.000       .  S
O122        C128   1.259       .  A
O123       Co140   1.924       .  S
O123        C126   1.236       .  A
O124       Co139   1.929       .  S
O124        C125   1.278       .  A
C125        C503   1.506       .  S
C126        C489   1.515       .  S
C127        C304   1.499       .  S
C128        C318   1.463       .  S
O129       Co137   1.967       .  S
O129        C142   1.271       .  A
O130       Co138   1.964       .  S
O130        C143   1.253       .  A
O131       Co139   2.120       .  S
O131        C144   1.294       .  A
O132       Co140   2.112       .  S
O132        C145   1.279       .  A
O133       Co138   1.945       .  S
O133        C145   1.239       .  A
O134       Co137   1.915       .  S
O134        C144   1.267       .  A
O135       Co140   1.998       .  S
O135        C142   1.274       .  A
O136       Co139   2.011       .  S
O136        C143   1.272       .  A
Co137       O141   2.004       .  S
Co138       O141   2.007       .  S
Co139       O141   2.032       .  S
Co140       O141   2.030       .  S
C142       C1650   1.484       .  S
C143        C332   1.474       .  S
C144        C612   1.487       .  S
C145        C598   1.515       .  S
O146       Co166   2.038       .  S
O146        C154   1.283       .  A
O147       Co167   2.067       .  S
O147        C155   1.266       .  A
O148       Co168   2.006       .  S
O148        C156   1.276       .  A
O149       Co169   1.940       .  S
O149        C157   1.244       .  A
O150       Co167   2.036       .  S
O150        C156   1.276       .  A
O151       Co166   2.011       .  S
O151        C157   1.261       .  A
O152       Co169   1.944       .  S
O152        C155   1.239       .  A
O153       Co168   1.956       .  S
O153        C154   1.283       .  A
C154        C531   1.496       .  S
C155        C517   1.491       .  S
C156        C262   1.511       .  S
C157        C321   1.460       .  S
O158       Co166   1.962       .  S
O158        C171   1.267       .  A
O159      Co2887   1.889       .  S
O159        C172   1.247       .  A
O160       Co168   2.034       .  S
O160        C173   1.286       .  A
O161       Co169   2.059       .  S
O161        C174   1.270       .  A
O162       Co167   1.954       .  S
O162        C174   1.243       .  A
O163       Co166   1.993       .  S
O163        C173   1.271       .  A
O164       Co169   2.040       .  S
O164        C171   1.281       .  A
O165      Co2888   2.137       .  S
O165        C172   1.315       .  A
Co166       O170   2.130       .  S
Co167      O2879   1.889       .  S
Co167       O170   2.063       .  S
Co168      O2885   2.137       .  S
Co168       O170   1.935       .  S
Co169       O170   2.031       .  S
C171        C279   1.500       .  S
C172        C335   1.465   1_655  S
C173        C587   1.485       .  S
C174        C573   1.474       .  S
O175       Co195   2.100       .  S
O175        C183   1.288       .  A
O176       Co196   2.035       .  S
O176        C184   1.265       .  A
O177       Co197   2.013       .  S
O177        C185   1.266       .  A
O178      Co2918   1.919       .  S
O178        C186   1.243       .  A
O179       Co196   1.980       .  S
O179        C185   1.259       .  A
O180      Co2915   2.038       .  S
O180        C186   1.275       .  A
O181       Co198   1.957       .  S
O181        C184   1.242       .  A
O182       Co197   1.934       .  S
O182        C183   1.263       .  A
C183        C363   1.501       .  S
C184        C346   1.485       .  S
C185        C307   1.485       .  S
C186        C234   1.467       .  S
O187       Co195   1.994       .  S
O187        C200   1.274       .  A
O188       Co196   1.924       .  S
O188        C201   1.247       .  A
O189       Co197   2.138       .  S
O189        C202   1.315       .  A
O190       Co198   2.088       .  S
O190        C203   1.281       .  A
O191       Co196   1.942       .  S
O191        C203   1.243       .  A
O192       Co195   1.929       .  S
O192        C202   1.276       .  A
O193       Co198   2.025       .  S
O193        C200   1.274       .  A
O194       Co197   2.039       .  S
O194        C201   1.289       .  A
Co195      O2900   2.038       .  S
Co195       O199   2.064       .  S
Co196       O199   2.047       .  S
Co197       O199   2.003       .  S
Co198      O2898   1.919       .  S
Co198       O199   2.026       .  S
C200        C265   1.502       .  S
C201        C251   1.455       .  S
C202        C444   1.494       .  S
C203        C433   1.495       .  S
O204       Co224   1.946       .  S
O204        C212   1.244       .  A
O205       Co225   1.957       .  S
O205        C213   1.274       .  A
O206       Co226   2.029       .  S
O206        C214   1.279       .  A
O207       Co227   2.045       .  S
O207        C215   1.276       .  A
O208       Co225   1.957       .  S
O208        C214   1.268       .  A
O209       Co224   1.925       .  S
O209        C215   1.241       .  A
O210       Co227   2.066       .  S
O210        C213   1.276       .  A
O211       Co226   2.069       .  S
O211        C212   1.272       .  A
C212        C391   1.502       .  S
C213        C374   1.491       .  S
C214        C293   1.486       .  S
C215        C237   1.468       .  S
O216       Co224   2.023       .  S
O216        C229   1.282       .  A
O217       Co225   2.048       .  S
O217        C230   1.268       .  A
O218       Co226   1.949       .  S
O218        C231   1.251       .  A
O219       Co227   1.974       .  S
O219        C232   1.284       .  A
O220       Co225   2.065       .  S
O220        C232   1.284       .  A
O221       Co224   2.068       .  S
O221        C231   1.282       .  A
O222       Co227   1.972       .  S
O222        C229   1.275       .  A
O223       Co226   1.923       .  S
O223        C230   1.241       .  A
Co224       O228   1.968       .  S
Co225       O228   2.031       .  S
Co226       O228   2.011       .  S
Co227       O228   2.040       .  S
C229        C276   1.500       .  S
C230        C248   1.480       .  S
C231        C416   1.491       .  S
C232        C405   1.525       .  S
C233        C234   1.392       .  A
C233        C238   1.399       .  A
C233        H240   1.084       .  S
C234        C235   1.426       .  A
C235        C236   1.398       .  A
C235        N242   1.444       .  S
C236        C237   1.393       .  A
C236        H241   1.084       .  S
C237        C238   1.428       .  A
C238        N239   1.440       .  S
N239        O243   1.263       .  A
N239        O244   1.261       .  A
N242        O245   1.262       .  A
N242        O246   1.262       .  A
C247        C248   1.402       .  A
C247        C252   1.411       .  A
C247        H254   1.083       .  S
C248        C249   1.422       .  A
C249        C250   1.390       .  A
C249        N256   1.433       .  S
C250        C251   1.383       .  A
C250        H255   1.084       .  S
C251        C252   1.419       .  A
C252        N253   1.442       .  S
N253        O257   1.263       .  A
N253        O258   1.262       .  A
N256        O259   1.264       .  A
N256        O260   1.259       .  A
C261        C262   1.407       .  A
C261       C2986   1.409   1_545  A
C261        H268   1.084       .  S
C262       C2983   1.423       .  A
C263        C264   1.417   1_545  A
C263       C2982   1.423   1_455  A
C263        N270   1.433       .  S
C264       C1625   1.405       .  A
C264        H269   1.084       .  S
C265       C1624   1.405       .  A
C265       C1626   1.414       .  A
C266       C2981   1.409   1_465  A
C266       C1625   1.414       .  A
C266       N4347   1.428       .  S
N267       C4346   1.428       .  S
N267        O271   1.262       .  A
N267       O2992   1.261       .  A
N270        O274   1.263       .  A
N270       O2993   1.261   1_455  A
O272       N2987   1.261       .  A
O273       N2990   1.261       .  A
C275        C276   1.410       .  A
C275        C280   1.403       .  A
C275        H282   1.083       .  S
C276        C277   1.417       .  A
C277        C278   1.410       .  A
C277        N284   1.435       .  S
C278        C279   1.410       .  A
C278        H283   1.083       .  S
C279        C280   1.418       .  A
C280        N281   1.437       .  S
N281        O285   1.263       .  A
N281        O286   1.263       .  A
N284        O287   1.263       .  A
N284        O288   1.262       .  A
C289        C290   1.406       .  A
C289        C294   1.404       .  A
C289        H296   1.083       .  S
C290       C1502   1.484       .  S
C290        C291   1.417       .  A
C291        C292   1.399       .  A
C291       N1658   1.438       .  S
C292        C293   1.406       .  A
C292        H297   1.083       .  S
C293        C294   1.418       .  A
C294        N295   1.438       .  S
N295        O299   1.262       .  A
N295        O300   1.262       .  A
N298       C1651   1.438       .  S
N298        O301   1.263       .  A
N298        O302   1.263       .  A
C303        C304   1.404       .  A
C303        C308   1.408       .  A
C303        H310   1.083       .  S
C304        C305   1.431       .  A
C305        C306   1.401       .  A
C305        N312   1.434       .  S
C306        C307   1.394       .  A
C306        H311   1.085       .  S
C307        C308   1.409       .  A
C308        N309   1.424       .  S
N309        O313   1.260       .  A
N309        O314   1.262       .  A
N312        O315   1.263       .  A
N312        O316   1.262       .  A
C317        C318   1.405       .  A
C317        C322   1.388       .  A
C317        H324   1.085       .  S
C318        C319   1.408       .  A
C319        C320   1.400       .  A
C319        N326   1.437       .  S
C320        C321   1.407       .  A
C320        H325   1.084       .  S
C321        C322   1.404       .  A
C322        N323   1.431       .  S
N323        O327   1.262       .  A
N323        O328   1.260       .  A
N326        O329   1.262       .  A
N326        O330   1.263       .  A
C331        C332   1.398       .  A
C331        C336   1.396       .  A
C331        H338   1.084       .  S
C332        C333   1.423       .  A
C333        C334   1.396       .  A
C333        N340   1.435       .  S
C334        C335   1.394       .  A
C334        H339   1.085       .  S
C335        C336   1.422       .  A
C336        N337   1.440       .  S
N337        O341   1.263       .  A
N337        O342   1.261       .  A
N340        O343   1.262       .  A
N340        O344   1.262       .  A
C345        C346   1.396       .  A
C345        C350   1.399       .  A
C345        H352   1.084       .  S
C346       C3067   1.419       .  A
C347        C348   1.413       .  A
C347       C3066   1.419       .  A
C347        N354   1.442       .  S
C348        C349   1.403       .  A
C348        H353   1.084       .  S
C349       C3070   1.428       .  A
C350       C3069   1.428   1_455  A
C350        N351   1.443       .  S
N351        O355   1.262       .  A
N351       O3076   1.260       .  A
N354        O357   1.263       .  A
N354        O358   1.263       .  A
O356       N3071   1.260       .  A
C359        C364   1.419       .  A
C359       C3080   1.404   1_455  A
C359        H366   1.078       .  S
C360        C361   1.411       .  A
C360       C3079   1.404       .  A
C361        C362   1.406       .  A
C361        N368   1.442       .  S
C362       C3083   1.407       .  A
C362        H367   1.079       .  S
C363        C364   1.430       .  A
C363       C3082   1.407   1_455  A
C364        N365   1.448       .  S
N365        O369   1.263       .  A
N365        O370   1.260       .  A
N368        O371   1.262       .  A
N368        O372   1.263       .  A
C373        C374   1.394       .  A
C373        C378   1.405       .  A
C373        H380   1.080       .  S
C374        C375   1.421       .  A
C375        C376   1.423       .  A
C375        N382   1.441       .  S
C376        C377   1.408       .  A
C376        H381   1.083       .  S
C377        C378   1.425       .  A
C378        N379   1.437       .  S
N379        O383   1.261       .  A
N379        O384   1.261       .  A
N382        O385   1.263       .  A
N382        O386   1.263       .  A
C387        C388   1.408       .  A
C387        C392   1.420       .  A
C387        H394   1.083       .  S
C388        C389   1.406       .  A
C389        C390   1.397       .  A
C389        N396   1.443       .  S
C390        C391   1.415       .  A
C390        H395   1.083       .  S
C391        C392   1.421       .  A
C392        N393   1.445       .  S
N393        O397   1.261       .  A
N393        O398   1.263       .  A
N396        O399   1.263       .  A
N396        O400   1.262       .  A
C401        C402   1.396       .  A
C401        C406   1.395       .  A
C401        H408   1.084       .  S
C402        C403   1.440       .  A
C403        C404   1.438       .  A
C403        N410   1.447       .  S
C404        C405   1.411       .  A
C404        H409   1.082       .  S
C405        C406   1.423       .  A
C406        N407   1.427       .  S
N407        O411   1.261       .  A
N407        O412   1.262       .  A
N410        O413   1.260       .  A
N410        O414   1.263       .  A
C415        C416   1.397       .  A
C415        C420   1.404       .  A
C415        H422   1.083       .  S
C416        C417   1.424       .  A
C417        C418   1.419       .  A
C417        N424   1.444       .  S
C418        C419   1.403       .  A
C418        H423   1.083       .  S
C419        C420   1.411       .  A
C420        N421   1.426       .  S
N421        O425   1.261       .  A
N421        O426   1.260       .  A
N424        O427   1.263       .  A
N424        O428   1.263       .  A
C429        C430   1.390       .  A
C429        C434   1.384       .  A
C429        H436   1.084       .  S
C430        C431   1.420       .  A
C431        C432   1.421       .  A
C431        N438   1.432       .  S
C432        C433   1.406       .  A
C432        H437   1.083       .  S
C433        C434   1.424       .  A
C434        N435   1.429       .  S
N435        O439   1.262       .  A
N435        O440   1.262       .  A
N438        O441   1.262       .  A
N438        O442   1.263       .  A
C443        C444   1.410       .  A
C443        C448   1.412       .  A
C443        H450   1.078       .  S
C444        C445   1.411       .  A
C445        C446   1.412       .  A
C445        N452   1.439       .  S
C446        C447   1.406       .  A
C446        H451   1.076       .  S
C447        C448   1.407       .  A
C448        N449   1.442       .  S
N449        O453   1.261       .  A
N449        O454   1.263       .  A
N452        O455   1.262       .  A
N452        O456   1.261       .  A
C457        C462   1.399       .  A
C457       C1138   1.399       .  A
C457        H464   1.084       .  S
C458        C459   1.411       .  A
C458       C1137   1.399       .  A
C459        C460   1.392       .  A
C459        N466   1.433       .  S
C460       C1141   1.391       .  A
C460        H465   1.080       .  S
C461        C462   1.407       .  A
C461       C1140   1.391       .  A
C462        N463   1.432       .  S
N463        O467   1.262       .  A
N463        O468   1.262       .  A
N466        O469   1.261   1_556  A
N466        O470   1.262       .  A
C471        C472   1.400       .  A
C471        C476   1.393       .  A
C471        H478   1.084       .  S
C472       C1153   1.424       .  A
C473        C474   1.405       .  A
C473       C1152   1.424       .  A
C473        N480   1.446       .  S
C474        C475   1.401       .  A
C474        H479   1.084       .  S
C475       C2835   1.475       .  S
C475       C1156   1.419   1_554  A
C476       C1155   1.419       .  A
C476        N477   1.437       .  S
N477        O481   1.263       .  A
N477       O3882   1.259       .  A
N480        O484   1.263       .  A
N480       O1163   1.260       .  A
O482       N3877   1.259   1_554  A
O483       N1160   1.260       .  A
C485        C486   1.397       .  A
C485        C490   1.406       .  A
C485        H492   1.084       .  S
C486        C487   1.422       .  A
C487        C488   1.425       .  A
C487        N494   1.434       .  S
C488        C489   1.404       .  A
C488        H493   1.083       .  S
C489        C490   1.431       .  A
C490        N491   1.439       .  S
N491        O495   1.263       .  A
N491        O496   1.263       .  A
N494        O497   1.263       .  A
N494        O498   1.262       .  A
C499        C500   1.412       .  A
C499        C504   1.419       .  A
C499        H506   1.076       .  S
C500        C501   1.405       .  A
C501        C502   1.404       .  A
C501        N508   1.430       .  S
C502        C503   1.407       .  A
C502        H507   1.074       .  S
C503        C504   1.413       .  A
C504        N505   1.430       .  S
N505        O509   1.262       .  A
N505        O510   1.262       .  A
N508        O511   1.261       .  A
N508        O512   1.262       .  A
C513        C514   1.405       .  A
C513        C518   1.412       .  A
C513        H520   1.083       .  S
C514        C515   1.406       .  A
C515        C516   1.395       .  A
C515        N522   1.442       .  S
C516        C517   1.413       .  A
C516        H521   1.083       .  S
C517        C518   1.417       .  A
C518        N519   1.441       .  S
N519        O523   1.262       .  A
N519        O524   1.261       .  A
N522        O525   1.263       .  A
N522        O526   1.262       .  A
C527        C528   1.389       .  A
C527        C532   1.376       .  A
C527        H534   1.083       .  S
C528        C529   1.421       .  A
C529        C530   1.424       .  A
C529        N536   1.439       .  S
C530        C531   1.411       .  A
C530        H535   1.083       .  S
C531        C532   1.424       .  A
C532        N533   1.433       .  S
N533        O537   1.261       .  A
N533        O538   1.260       .  A
N536        O539   1.263       .  A
N536        O540   1.263       .  A
C541        C546   1.402       .  A
C541       C1902   1.407       .  A
C541        H548   1.084       .  S
C542       C1901   1.407       .  A
C542       C1223   1.417   1_554  A
C543       C1222   1.417       .  A
C543       C1904   1.403   1_545  A
C543        N550   1.440       .  S
C544        C545   1.405       .  A
C544       C1903   1.403       .  A
C544       H1909   1.082       .  S
C545       C1226   1.411       .  A
C546       C1225   1.411       .  A
C546        N547   1.430       .  S
N547        O551   1.260       .  A
N547        O552   1.262       .  A
H549       C1904   1.082       .  S
N550        O553   1.262       .  A
N550        O554   1.262       .  A
C555        C560   1.415       .  A
C555       C1236   1.408       .  A
C555        H562   1.083       .  S
C556        C738   1.497       .  S
C556        C557   1.417   1_556  A
C556       C1235   1.408       .  A
C557        C558   1.397       .  A
C557        N564   1.431       .  S
C558        C559   1.406   1_554  A
C558        H563   1.083       .  S
C559       C1240   1.422       .  A
C560       C1239   1.422       .  A
C560        N561   1.437       .  S
N561        O565   1.263       .  A
N561       O1246   1.263       .  A
N564        O568   1.262       .  A
N564       O1247   1.262       .  A
O566       N1241   1.263       .  A
O567       N1244   1.262       .  A
C569        C574   1.418       .  A
C569       C3290   1.412       .  A
C569        H576   1.083       .  S
C570        C571   1.406       .  A
C570       C3289   1.412   1_455  A
C571        C572   1.378   1_455  A
C571        N578   1.435       .  S
C572       C3293   1.403       .  A
C572        H577   1.082       .  S
C573        C574   1.416       .  A
C573       C3292   1.403       .  A
C574        N575   1.445       .  S
N575        O579   1.263       .  A
N575        O580   1.262       .  A
N578        O581   1.262       .  A
N578        O582   1.262       .  A
C583        C588   1.418       .  A
C583       C3304   1.406       .  A
C583        H590   1.083       .  S
C584        C585   1.388       .  A
C584       C3303   1.406       .  A
C585        C586   1.373       .  A
C585        N592   1.435       .  S
C586       C3307   1.406   1_455  A
C586        H591   1.076       .  S
C587        C588   1.423       .  A
C587       C3306   1.406       .  A
C588        N589   1.440       .  S
N589        O593   1.263       .  A
N589        O594   1.260       .  A
N592        O595   1.262       .  A
N592        O596   1.262       .  A
C597        C598   1.413       .  A
C597        C602   1.440       .  A
C597        H604   1.083       .  S
C598        C599   1.416       .  A
C599        C600   1.384       .  A
C599        N606   1.427       .  S
C600        C601   1.400       .  A
C600        H605   1.083       .  S
C601        C602   1.441       .  A
C602        N603   1.446       .  S
N603        O607   1.263       .  A
N603        O608   1.260       .  A
N606        O609   1.261       .  A
N606        O610   1.262       .  A
C611        C612   1.400       .  A
C611        C616   1.408       .  A
C611        H618   1.084       .  S
C612        C613   1.419       .  A
C613        C614   1.418       .  A
C613        N620   1.443       .  S
C614        C615   1.403       .  A
C614        H619   1.083       .  S
C615        C616   1.414       .  A
C616        N617   1.435       .  S
N617        O621   1.263       .  A
N617        O622   1.261       .  A
N620        O623   1.263       .  A
N620        O624   1.262       .  A
C625       C2666   1.412       .  A
C625       C3350   1.402   1_455  A
C625        H632   1.083       .  S
C626       C2665   1.412       .  A
C626       C3347   1.420   1_456  A
C627        C628   1.413   1_545  A
C627       C3346   1.420   1_554  A
C627        N634   1.436       .  S
C628       C1989   1.409   1_554  A
C628        H633   1.083       .  S
C629        C776   1.495       .  S
C629       C1988   1.409   1_556  A
C629       C1310   1.415       .  A
C630       C3345   1.402       .  A
C630       C1309   1.415       .  A
C630        N631   1.438       .  S
N631       O3355   1.263       .  A
N631       O1316   1.263       .  A
N634        O638   1.262       .  A
N634       O1317   1.263       .  A
O635       N3351   1.263   1_455  A
O636       N1311   1.263       .  A
O637       N1314   1.263       .  A
C639        C640   1.397       .  A
C639        C644   1.396       .  A
C639        H646   1.082       .  S
C640       C1321   1.426       .  A
C641        C642   1.411       .  A
C641       C1320   1.426       .  A
C641        N648   1.441       .  S
C642       C1323   1.400       .  A
C642        H647   1.079       .  S
C643        C719   1.484       .  S
C643        C644   1.415       .  A
C643       C1322   1.400       .  A
C644        N645   1.435       .  S
N645        O649   1.260       .  A
N645        O650   1.261       .  A
N648        O651   1.261       .  A
N648        O652   1.263       .  A
C653        C658   1.382       .  A
C653       C1334   1.387       .  A
C653        H660   1.064       .  S
C654        C655   1.403   1_556  A
C654       C1333   1.387       .  A
C655        C656   1.385       .  A
C655        N662   1.432       .  S
C656        C657   1.402   1_554  A
C656        H661   1.079       .  S
C657       C1338   1.407       .  A
C658       C1337   1.407       .  A
C658        N659   1.427       .  S
N659        O664   1.262       .  A
N659       O1343   1.262       .  A
N662        O665   1.259       .  A
N662       O1346   1.262       .  A
O663       N1339   1.262       .  A
O666       N1342   1.262       .  A
C667        C672   1.414       .  A
C667       C1348   1.417       .  A
C667        H674   1.082       .  S
C668        C669   1.410       .  A
C668       C1347   1.417       .  A
C669        C670   1.400       .  A
C669        N676   1.437       .  S
C670        C671   1.407       .  A
C670        H675   1.076       .  S
C671       C1352   1.412       .  A
C672       C1351   1.412       .  A
C672        N673   1.444       .  S
N673        O677   1.263       .  A
N673       O1358   1.262       .  A
N676        O680   1.262       .  A
N676       O1359   1.263       .  A
O678       N1353   1.262       .  A
O679       N1356   1.263       .  A
O681       Co701   2.015       .  S
O682       Co702   2.028       .  S
O682       C3410   1.262   1_456  A
O683       Co703   1.987       .  S
O683        C691   1.273       .  A
O684       Co704   1.883       .  S
O684        C692   1.278       .  A
O685       Co702   1.989       .  S
O685        C691   1.276       .  A
O686       Co701   2.062       .  S
O686        C692   1.292       .  A
O687       Co704   1.983       .  S
O687       C2730   1.246   1_455  A
O688       Co703   1.981       .  S
O688        C689   1.271   1_556  A
C689       C1351   1.484       .  S
C690       O3402   1.262   1_554  A
C690       O2727   1.246       .  A
C690       C1320   1.481       .  S
C691       C1250   1.471       .  S
C692       C1264   1.460       .  S
O693       Co701   1.900       .  S
O693        C706   1.269       .  A
O694       Co702   2.023       .  S
O694        C707   1.276       .  A
O695       Co703   1.982       .  S
O696       Co704   2.156       .  S
O696        C709   1.319       .  A
O697       Co702   1.852       .  S
O698       Co701   1.954       .  S
O698        C708   1.250       .  A
O699       Co704   2.115       .  S
O699        C706   1.307       .  A
O700       Co703   2.000       .  S
O700        C707   1.278       .  A
Co701       O705   1.945       .  S
Co704       O705   2.033       .  S
C706       C1295   1.494       .  S
C707       C1281   1.526       .  S
C708       C1334   1.432       .  S
C709       C1306   1.504       .  S
O710       Co730   1.986       .  S
O710        C718   1.269       .  A
O711       Co731   1.957       .  S
O712       Co732   1.973       .  S
O712        C720   1.272       .  A
O713       Co733   2.057       .  S
O713        C721   1.299       .  A
O714       Co731   2.013       .  S
O714        C720   1.283       .  A
O715       Co730   1.964       .  S
O715        C721   1.259       .  A
O716       Co733   2.066       .  S
O716        C719   1.280       .  A
O717       Co732   1.984       .  S
C718       C1222   1.479       .  S
C720       C1194   1.466       .  S
C721       C1208   1.485       .  S
O722       Co730   1.889       .  S
O722        C735   1.266       .  A
O723       Co731   2.025       .  S
O723        C736   1.271       .  A
O724       Co732   1.972       .  S
O725       Co733   1.981       .  S
O726       Co731   1.986       .  S
O726        C738   1.294       .  A
O727       Co730   1.944       .  S
O727        C737   1.256       .  A
O728       Co733   2.146       .  S
O728        C735   1.310       .  A
O729       Co732   2.010       .  S
O729        C736   1.268       .  A
Co730       O734   1.891       .  S
Co733       O734   2.044       .  S
C735       C1180   1.500       .  S
C736       C1166   1.505       .  S
C737       C1337   1.452       .  S
O739       Co759   1.988       .  S
O740       Co760   1.994       .  S
O740        C748   1.266       .  A
O741       Co761   1.997       .  S
O741        C749   1.282       .  A
O742       Co762   2.003       .  S
O742        C750   1.270       .  A
O743       Co760   2.133       .  S
O743        C749   1.320       .  A
O744       Co759   2.007       .  S
O744        C750   1.267       .  A
O745       Co762   1.992       .  S
O746       Co761   1.988       .  S
O746        C747   1.276   1_556  A
C747       C1348   1.496       .  S
C748       C1141   1.457       .  S
C749       C1082   1.518       .  S
C750       C1099   1.500       .  S
O751       Co759   1.875       .  S
O751        C764   1.273       .  A
O752       Co760   1.992       .  S
O752        C765   1.258       .  A
O753       Co761   1.997       .  S
O753        C766   1.268   1_556  A
O754       Co762   1.972       .  S
O755       Co760   1.985       .  S
O755        C767   1.291   1_556  A
O756       Co759   1.986       .  S
O757       Co762   2.133       .  S
O757        C764   1.314       .  A
O758       Co761   1.985       .  S
O758        C765   1.264       .  A
Co760       O763   1.983   1_556  S
Co761       O763   2.050   1_556  S
C764       C1127   1.483       .  S
C765       C1110   1.485       .  S
C766       C1152   1.474       .  S
C767       C1225   1.487       .  S
O768       Co788   1.979       .  S
O769       Co789   1.972       .  S
O770       Co790   2.111       .  S
O770        C778   1.306       .  A
O771       Co791   2.025       .  S
O771        C779   1.286       .  A
O772       Co789   1.919       .  S
O772        C778   1.273       .  A
O773       Co788   1.987       .  S
O773        C779   1.276       .  A
O774       Co791   2.002       .  S
O774        C777   1.249       .  A
O775       Co790   1.995       .  S
O775        C776   1.268       .  A
C777       C1138   1.455       .  S
C778       C1057   1.506       .  S
C779       C1068   1.478       .  S
O780       Co788   2.008       .  S
O780        C793   1.269       .  A
O781       Co789   2.113       .  S
O781        C794   1.303       .  A
O782       Co790   1.986       .  S
O783       Co791   1.871       .  S
O783        C796   1.286       .  A
O784       Co789   2.137       .  S
O785       Co788   2.015       .  S
O785        C795   1.272       .  A
O786       Co791   2.002       .  S
O786        C793   1.272       .  A
O787       Co790   1.898       .  S
O787        C794   1.260       .  A
Co788       O792   2.018       .  S
Co791       O792   1.900       .  S
C793       C1040   1.492       .  S
C794       C1029   1.483       .  S
C795       C3875   1.475       .  S
C796       C1239   1.500       .  S
O797       Co817   2.103       .  S
O797        C805   1.294       .  A
O798       Co818   2.131       .  S
O798        C806   1.284       .  A
O799       Co819   1.997       .  S
O799        C807   1.277       .  A
O800       Co820   1.948       .  S
O800        C808   1.253       .  A
O801       Co818   1.988       .  S
O801        C807   1.265       .  A
O802       Co817   2.000       .  S
O802        C808   1.259       .  A
O803       Co820   1.924       .  S
O803        C806   1.236       .  A
O804       Co819   1.929       .  S
O804        C805   1.278       .  A
C805       C1183   1.506       .  S
C806       C1169   1.515       .  S
C807        C984   1.499       .  S
C808        C998   1.463       .  S
O809       Co817   1.967       .  S
O809        C822   1.271       .  A
O810       Co818   1.964       .  S
O810        C823   1.253       .  A
O811       Co819   2.120       .  S
O811        C824   1.294       .  A
O812       Co820   2.112       .  S
O812        C825   1.279       .  A
O813       Co818   1.945       .  S
O813        C825   1.239       .  A
O814       Co817   1.915       .  S
O814        C824   1.267       .  A
O815       Co820   1.998       .  S
O815        C822   1.274       .  A
O816       Co819   2.011       .  S
O816        C823   1.272       .  A
Co817       O821   2.004       .  S
Co818       O821   2.007       .  S
Co819       O821   2.032       .  S
Co820       O821   2.030       .  S
C822       C2330   1.484       .  S
C823       C1012   1.474       .  S
C824       C1292   1.487       .  S
C825       C1278   1.515       .  S
O826       Co846   2.038       .  S
O826        C834   1.283       .  A
O827       Co847   2.067       .  S
O827        C835   1.266       .  A
O828       Co848   2.006       .  S
O828        C836   1.276       .  A
O829       Co849   1.940       .  S
O829        C837   1.244       .  A
O830       Co847   2.036       .  S
O830        C836   1.276       .  A
O831       Co846   2.011       .  S
O831        C837   1.261       .  A
O832       Co849   1.944       .  S
O832        C835   1.239       .  A
O833       Co848   1.956       .  S
O833        C834   1.283       .  A
C834       C1211   1.496       .  S
C835       C1197   1.491       .  S
C836        C942   1.511       .  S
C837       C1001   1.460       .  S
O838       Co846   1.962       .  S
O838        C851   1.267       .  A
O839      Co3567   1.889       .  S
O839        C852   1.247       .  A
O840       Co848   2.034       .  S
O840        C853   1.286       .  A
O841       Co849   2.059       .  S
O841        C854   1.270       .  A
O842       Co847   1.954       .  S
O842        C854   1.243       .  A
O843       Co846   1.993       .  S
O843        C853   1.271       .  A
O844       Co849   2.040       .  S
O844        C851   1.281       .  A
O845      Co3568   2.137       .  S
O845        C852   1.315       .  A
Co846       O850   2.130       .  S
Co847      O3559   1.889       .  S
Co847       O850   2.063       .  S
Co848      O3565   2.137       .  S
Co848       O850   1.935       .  S
Co849       O850   2.031       .  S
C851        C959   1.500       .  S
C852       C1015   1.465   1_655  S
C853       C1267   1.485       .  S
C854       C1253   1.474       .  S
O855       Co875   2.100       .  S
O855        C863   1.288       .  A
O856       Co876   2.035       .  S
O856        C864   1.265       .  A
O857       Co877   2.013       .  S
O857        C865   1.266       .  A
O858      Co3598   1.919       .  S
O858        C866   1.243       .  A
O859       Co876   1.980       .  S
O859        C865   1.259       .  A
O860      Co3595   2.038       .  S
O860        C866   1.275       .  A
O861       Co878   1.957       .  S
O861        C864   1.242       .  A
O862       Co877   1.934       .  S
O862        C863   1.263       .  A
C863       C1043   1.501       .  S
C864       C1026   1.485       .  S
C865        C987   1.485       .  S
C866        C914   1.467       .  S
O867       Co875   1.994       .  S
O867        C880   1.274       .  A
O868       Co876   1.924       .  S
O868        C881   1.247       .  A
O869       Co877   2.138       .  S
O869        C882   1.315       .  A
O870       Co878   2.088       .  S
O870        C883   1.281       .  A
O871       Co876   1.942       .  S
O871        C883   1.243       .  A
O872       Co875   1.929       .  S
O872        C882   1.276       .  A
O873       Co878   2.025       .  S
O873        C880   1.274       .  A
O874       Co877   2.039       .  S
O874        C881   1.289       .  A
Co875      O3580   2.038       .  S
Co875       O879   2.064       .  S
Co876       O879   2.047       .  S
Co877       O879   2.003       .  S
Co878      O3578   1.919       .  S
Co878       O879   2.026       .  S
C880        C945   1.502       .  S
C881        C931   1.455       .  S
C882       C1124   1.494       .  S
C883       C1113   1.495       .  S
O884       Co904   1.946       .  S
O884        C892   1.244       .  A
O885       Co905   1.957       .  S
O885        C893   1.274       .  A
O886       Co906   2.029       .  S
O886        C894   1.279       .  A
O887       Co907   2.045       .  S
O887        C895   1.276       .  A
O888       Co905   1.957       .  S
O888        C894   1.268       .  A
O889       Co904   1.925       .  S
O889        C895   1.241       .  A
O890       Co907   2.066       .  S
O890        C893   1.276       .  A
O891       Co906   2.069       .  S
O891        C892   1.272       .  A
C892       C1071   1.502       .  S
C893       C1054   1.491       .  S
C894        C973   1.486       .  S
C895        C917   1.468       .  S
O896       Co904   2.023       .  S
O896        C909   1.282       .  A
O897       Co905   2.048       .  S
O897        C910   1.268       .  A
O898       Co906   1.949       .  S
O898        C911   1.251       .  A
O899       Co907   1.974       .  S
O899        C912   1.284       .  A
O900       Co905   2.065       .  S
O900        C912   1.284       .  A
O901       Co904   2.068       .  S
O901        C911   1.282       .  A
O902       Co907   1.972       .  S
O902        C909   1.275       .  A
O903       Co906   1.923       .  S
O903        C910   1.241       .  A
Co904       O908   1.968       .  S
Co905       O908   2.031       .  S
Co906       O908   2.011       .  S
Co907       O908   2.040       .  S
C909        C956   1.500       .  S
C910        C928   1.480       .  S
C911       C1096   1.491       .  S
C912       C1085   1.525       .  S
C913        C914   1.392       .  A
C913        C918   1.399       .  A
C913        H920   1.084       .  S
C914        C915   1.426       .  A
C915        C916   1.398       .  A
C915        N922   1.444       .  S
C916        C917   1.393       .  A
C916        H921   1.084       .  S
C917        C918   1.428       .  A
C918        N919   1.440       .  S
N919        O923   1.263       .  A
N919        O924   1.261       .  A
N922        O925   1.262       .  A
N922        O926   1.262       .  A
C927        C928   1.402       .  A
C927        C932   1.411       .  A
C927        H934   1.083       .  S
C928        C929   1.422       .  A
C929        C930   1.390       .  A
C929        N936   1.433       .  S
C930        C931   1.383       .  A
C930        H935   1.084       .  S
C931        C932   1.419       .  A
C932        N933   1.442       .  S
N933        O937   1.263       .  A
N933        O938   1.262       .  A
N936        O939   1.264       .  A
N936        O940   1.259       .  A
C941        C942   1.407       .  A
C941       C3666   1.409   1_545  A
C941        H948   1.084       .  S
C942       C3663   1.423       .  A
C943       C3662   1.423   1_455  A
C943        C944   1.417   1_545  A
C943        N950   1.433       .  S
C944       C2305   1.405       .  A
C944        H949   1.084       .  S
C945       C2304   1.405       .  A
C945       C2306   1.414       .  A
C946       C3661   1.409   1_465  A
C946       C2305   1.414       .  A
C946       N5027   1.428       .  S
N947       C5026   1.428       .  S
N947        O951   1.262       .  A
N947       O3672   1.261       .  A
N950       O3673   1.261   1_455  A
N950        O954   1.263       .  A
O952       N3667   1.261       .  A
O953       N3670   1.261       .  A
C955        C956   1.410       .  A
C955        C960   1.403       .  A
C955        H962   1.083       .  S
C956        C957   1.417       .  A
C957        C958   1.410       .  A
C957        N964   1.435       .  S
C958        C959   1.410       .  A
C958        H963   1.083       .  S
C959        C960   1.418       .  A
C960        N961   1.437       .  S
N961        O965   1.263       .  A
N961        O966   1.263       .  A
N964        O967   1.263       .  A
N964        O968   1.262       .  A
C969        C970   1.406       .  A
C969        C974   1.404       .  A
C969        H976   1.083       .  S
C970       C2182   1.484       .  S
C970        C971   1.417       .  A
C971        C972   1.399       .  A
C971       N2338   1.438       .  S
C972        C973   1.406       .  A
C972        H977   1.083       .  S
C973        C974   1.418       .  A
C974        N975   1.438       .  S
N975        O979   1.262       .  A
N975        O980   1.262       .  A
N978       C2331   1.438       .  S
N978        O981   1.263       .  A
N978        O982   1.263       .  A
C983        C984   1.404       .  A
C983        C988   1.408       .  A
C983        H990   1.083       .  S
C984        C985   1.431       .  A
C985        C986   1.401       .  A
C985        N992   1.434       .  S
C986        C987   1.394       .  A
C986        H991   1.085       .  S
C987        C988   1.409       .  A
C988        N989   1.424       .  S
N989        O993   1.260       .  A
N989        O994   1.262       .  A
N992        O995   1.263       .  A
N992        O996   1.262       .  A
C997        C998   1.405       .  A
C997       C1002   1.388       .  A
C997       H1004   1.085       .  S
C998        C999   1.408       .  A
C999       C1000   1.400       .  A
C999       N1006   1.437       .  S
C1000      C1001   1.407       .  A
C1000      H1005   1.084       .  S
C1001      C1002   1.404       .  A
C1002      N1003   1.431       .  S
N1003      O1007   1.262       .  A
N1003      O1008   1.260       .  A
N1006      O1009   1.262       .  A
N1006      O1010   1.263       .  A
C1011      C1012   1.398       .  A
C1011      C1016   1.396       .  A
C1011      H1018   1.084       .  S
C1012      C1013   1.423       .  A
C1013      C1014   1.396       .  A
C1013      N1020   1.435       .  S
C1014      C1015   1.394       .  A
C1014      H1019   1.085       .  S
C1015      C1016   1.422       .  A
C1016      N1017   1.440       .  S
N1017      O1021   1.263       .  A
N1017      O1022   1.261       .  A
N1020      O1023   1.262       .  A
N1020      O1024   1.262       .  A
C1025      C1026   1.396       .  A
C1025      C1030   1.399       .  A
C1025      H1032   1.084       .  S
C1026      C3747   1.419       .  A
C1027      C3746   1.419       .  A
C1027      C1028   1.413       .  A
C1027      N1034   1.442       .  S
C1028      C1029   1.403       .  A
C1028      H1033   1.084       .  S
C1029      C3750   1.428       .  A
C1030      C3749   1.428   1_455  A
C1030      N1031   1.443       .  S
N1031      O1035   1.262       .  A
N1031      O3756   1.260       .  A
N1034      O1037   1.263       .  A
N1034      O1038   1.263       .  A
O1036      N3751   1.260       .  A
C1039      C3760   1.404   1_455  A
C1039      C1044   1.419       .  A
C1039      H1046   1.078       .  S
C1040      C3759   1.404       .  A
C1040      C1041   1.411       .  A
C1041      C1042   1.406       .  A
C1041      N1048   1.442       .  S
C1042      C3763   1.407       .  A
C1042      H1047   1.079       .  S
C1043      C3762   1.407   1_455  A
C1043      C1044   1.430       .  A
C1044      N1045   1.448       .  S
N1045      O1049   1.263       .  A
N1045      O1050   1.260       .  A
N1048      O1051   1.262       .  A
N1048      O1052   1.263       .  A
C1053      C1054   1.394       .  A
C1053      C1058   1.405       .  A
C1053      H1060   1.080       .  S
C1054      C1055   1.421       .  A
C1055      C1056   1.423       .  A
C1055      N1062   1.441       .  S
C1056      C1057   1.408       .  A
C1056      H1061   1.083       .  S
C1057      C1058   1.425       .  A
C1058      N1059   1.437       .  S
N1059      O1063   1.261       .  A
N1059      O1064   1.261       .  A
N1062      O1065   1.263       .  A
N1062      O1066   1.263       .  A
C1067      C1068   1.408       .  A
C1067      C1072   1.420       .  A
C1067      H1074   1.083       .  S
C1068      C1069   1.406       .  A
C1069      C1070   1.397       .  A
C1069      N1076   1.443       .  S
C1070      C1071   1.415       .  A
C1070      H1075   1.083       .  S
C1071      C1072   1.421       .  A
C1072      N1073   1.445       .  S
N1073      O1077   1.261       .  A
N1073      O1078   1.263       .  A
N1076      O1079   1.263       .  A
N1076      O1080   1.262       .  A
C1081      C1082   1.396       .  A
C1081      C1086   1.395       .  A
C1081      H1088   1.084       .  S
C1082      C1083   1.440       .  A
C1083      C1084   1.438       .  A
C1083      N1090   1.447       .  S
C1084      C1085   1.411       .  A
C1084      H1089   1.082       .  S
C1085      C1086   1.423       .  A
C1086      N1087   1.427       .  S
N1087      O1091   1.261       .  A
N1087      O1092   1.262       .  A
N1090      O1093   1.260       .  A
N1090      O1094   1.263       .  A
C1095      C1096   1.397       .  A
C1095      C1100   1.404       .  A
C1095      H1102   1.083       .  S
C1096      C1097   1.424       .  A
C1097      C1098   1.419       .  A
C1097      N1104   1.444       .  S
C1098      C1099   1.403       .  A
C1098      H1103   1.083       .  S
C1099      C1100   1.411       .  A
C1100      N1101   1.426       .  S
N1101      O1105   1.261       .  A
N1101      O1106   1.260       .  A
N1104      O1107   1.263       .  A
N1104      O1108   1.263       .  A
C1109      C1110   1.390       .  A
C1109      C1114   1.384       .  A
C1109      H1116   1.084       .  S
C1110      C1111   1.420       .  A
C1111      C1112   1.421       .  A
C1111      N1118   1.432       .  S
C1112      C1113   1.406       .  A
C1112      H1117   1.083       .  S
C1113      C1114   1.424       .  A
C1114      N1115   1.429       .  S
N1115      O1119   1.262       .  A
N1115      O1120   1.262       .  A
N1118      O1121   1.262       .  A
N1118      O1122   1.263       .  A
C1123      C1124   1.410       .  A
C1123      C1128   1.412       .  A
C1123      H1130   1.078       .  S
C1124      C1125   1.411       .  A
C1125      C1126   1.412       .  A
C1125      N1132   1.439       .  S
C1126      C1127   1.406       .  A
C1126      H1131   1.076       .  S
C1127      C1128   1.407       .  A
C1128      N1129   1.442       .  S
N1129      O1133   1.261       .  A
N1129      O1134   1.263       .  A
N1132      O1135   1.262       .  A
N1132      O1136   1.261       .  A
C1137      C1142   1.399       .  A
C1137      H1144   1.084       .  S
C1138      C1139   1.411       .  A
C1139      C1140   1.392       .  A
C1139      N1146   1.433       .  S
C1140      H1145   1.080       .  S
C1141      C1142   1.407       .  A
C1142      N1143   1.432       .  S
N1143      O1147   1.262       .  A
N1143      O1148   1.262       .  A
N1146      O1149   1.261       .  A
N1146      O1150   1.262       .  A
C1151      C1152   1.400   1_556  A
C1151      C1156   1.393       .  A
C1151      H1158   1.084       .  S
C1153      C1154   1.405       .  A
C1153      N1160   1.446       .  S
C1154      C1155   1.401       .  A
C1154      H1159   1.084       .  S
C1155      C3515   1.475       .  S
C1156      N1157   1.437       .  S
N1157      O1161   1.263       .  A
N1157      O3202   1.259   1_556  A
N1160      O1164   1.263       .  A
O1162      N3197   1.259       .  A
C1165      C1166   1.397       .  A
C1165      C1170   1.406       .  A
C1165      H1172   1.084       .  S
C1166      C1167   1.422       .  A
C1167      C1168   1.425       .  A
C1167      N1174   1.434       .  S
C1168      C1169   1.404       .  A
C1168      H1173   1.083       .  S
C1169      C1170   1.431       .  A
C1170      N1171   1.439       .  S
N1171      O1175   1.263       .  A
N1171      O1176   1.263       .  A
N1174      O1177   1.263       .  A
N1174      O1178   1.262       .  A
C1179      C1180   1.412       .  A
C1179      C1184   1.419       .  A
C1179      H1186   1.076       .  S
C1180      C1181   1.405       .  A
C1181      C1182   1.404       .  A
C1181      N1188   1.430       .  S
C1182      C1183   1.407       .  A
C1182      H1187   1.074       .  S
C1183      C1184   1.413       .  A
C1184      N1185   1.430       .  S
N1185      O1189   1.262       .  A
N1185      O1190   1.262       .  A
N1188      O1191   1.261       .  A
N1188      O1192   1.262       .  A
C1193      C1194   1.405       .  A
C1193      C1198   1.412       .  A
C1193      H1200   1.083       .  S
C1194      C1195   1.406       .  A
C1195      C1196   1.395       .  A
C1195      N1202   1.442       .  S
C1196      C1197   1.413       .  A
C1196      H1201   1.083       .  S
C1197      C1198   1.417       .  A
C1198      N1199   1.441       .  S
N1199      O1203   1.262       .  A
N1199      O1204   1.261       .  A
N1202      O1205   1.263       .  A
N1202      O1206   1.262       .  A
C1207      C1208   1.389       .  A
C1207      C1212   1.376       .  A
C1207      H1214   1.083       .  S
C1208      C1209   1.421       .  A
C1209      C1210   1.424       .  A
C1209      N1216   1.439       .  S
C1210      C1211   1.411       .  A
C1210      H1215   1.083       .  S
C1211      C1212   1.424       .  A
C1212      N1213   1.433       .  S
N1213      O1217   1.261       .  A
N1213      O1218   1.260       .  A
N1216      O1219   1.263       .  A
N1216      O1220   1.263       .  A
C1221      C2582   1.407       .  A
C1221      C1226   1.402       .  A
C1221      H1228   1.084       .  S
C1222      C2581   1.407       .  A
C1223      C2584   1.403   1_545  A
C1223      N1230   1.440       .  S
C1224      C2583   1.403       .  A
C1224      C1225   1.405   1_556  A
C1224      H2589   1.082       .  S
C1226      N1227   1.430       .  S
N1227      O1231   1.260       .  A
N1227      O1232   1.262       .  A
H1229      C2584   1.082       .  S
N1230      O1233   1.262       .  A
N1230      O1234   1.262       .  A
C1235      C1240   1.415       .  A
C1235      H1242   1.083       .  S
C1236      C1237   1.417       .  A
C1237      C1238   1.397       .  A
C1237      N1244   1.431       .  S
C1238      C1239   1.406       .  A
C1238      H1243   1.083       .  S
C1240      N1241   1.437       .  S
N1241      O1245   1.263       .  A
N1244      O1248   1.262       .  A
C1249      C3970   1.412       .  A
C1249      C1254   1.418       .  A
C1249      H1256   1.083       .  S
C1250      C3969   1.412   1_455  A
C1250      C1251   1.406       .  A
C1251      C1252   1.378   1_455  A
C1251      N1258   1.435       .  S
C1252      C3973   1.403       .  A
C1252      H1257   1.082       .  S
C1253      C3972   1.403       .  A
C1253      C1254   1.416       .  A
C1254      N1255   1.445       .  S
N1255      O1259   1.263       .  A
N1255      O1260   1.262       .  A
N1258      O1261   1.262       .  A
N1258      O1262   1.262       .  A
C1263      C3984   1.406       .  A
C1263      C1268   1.418       .  A
C1263      H1270   1.083       .  S
C1264      C3983   1.406       .  A
C1264      C1265   1.388       .  A
C1265      C1266   1.373       .  A
C1265      N1272   1.435       .  S
C1266      C3987   1.406   1_455  A
C1266      H1271   1.076       .  S
C1267      C3986   1.406       .  A
C1267      C1268   1.423       .  A
C1268      N1269   1.440       .  S
N1269      O1273   1.263       .  A
N1269      O1274   1.260       .  A
N1272      O1275   1.262       .  A
N1272      O1276   1.262       .  A
C1277      C1278   1.413       .  A
C1277      C1282   1.440       .  A
C1277      H1284   1.083       .  S
C1278      C1279   1.416       .  A
C1279      C1280   1.384       .  A
C1279      N1286   1.427       .  S
C1280      C1281   1.400       .  A
C1280      H1285   1.083       .  S
C1281      C1282   1.441       .  A
C1282      N1283   1.446       .  S
N1283      O1287   1.263       .  A
N1283      O1288   1.260       .  A
N1286      O1289   1.261       .  A
N1286      O1290   1.262       .  A
C1291      C1292   1.400       .  A
C1291      C1296   1.408       .  A
C1291      H1298   1.084       .  S
C1292      C1293   1.419       .  A
C1293      C1294   1.418       .  A
C1293      N1300   1.443       .  S
C1294      C1295   1.403       .  A
C1294      H1299   1.083       .  S
C1295      C1296   1.414       .  A
C1296      N1297   1.435       .  S
N1297      O1301   1.263       .  A
N1297      O1302   1.261       .  A
N1300      O1303   1.263       .  A
N1300      O1304   1.262       .  A
C1305      C1986   1.412       .  A
C1305      C4030   1.402   1_455  A
C1305      H1312   1.083       .  S
C1306      C1985   1.412       .  A
C1306      C4027   1.420   1_455  A
C1307      C4026   1.420       .  A
C1307      C1308   1.413   1_545  A
C1307      N1314   1.436       .  S
C1308      C2669   1.409       .  A
C1308      H1313   1.083       .  S
C1309      C2668   1.409       .  A
C1310      C4025   1.402       .  A
C1310      N1311   1.438       .  S
N1311      O4035   1.263       .  A
N1314      O1318   1.262       .  A
O1315      N4031   1.263   1_455  A
C1319      C1320   1.397   1_556  A
C1319      C1324   1.396       .  A
C1319      H1326   1.082       .  S
C1321      C1322   1.411       .  A
C1321      N1328   1.441       .  S
C1322      H1327   1.079       .  S
C1323      C1324   1.415   1_554  A
C1324      N1325   1.435       .  S
N1325      O1329   1.260       .  A
N1325      O1330   1.261       .  A
N1328      O1331   1.261       .  A
N1328      O1332   1.263       .  A
C1333      C1338   1.382       .  A
C1333      H1340   1.064       .  S
C1334      C1335   1.403       .  A
C1335      C1336   1.385       .  A
C1335      N1342   1.432       .  S
C1336      C1337   1.402       .  A
C1336      H1341   1.079       .  S
C1338      N1339   1.427       .  S
N1339      O1344   1.262       .  A
N1342      O1345   1.259       .  A
C1347      C1352   1.414       .  A
C1347      H1354   1.082       .  S
C1348      C1349   1.410   1_554  A
C1349      C1350   1.400       .  A
C1349      N1356   1.437       .  S
C1350      C1351   1.407   1_556  A
C1350      H1355   1.076       .  S
C1352      N1353   1.444       .  S
N1353      O1357   1.263       .  A
N1356      O1360   1.262       .  A
O1361     Co1381   2.015       .  S
O1361      C2049   1.275       .  A
O1362     Co1382   2.028       .  S
O1362      C4090   1.262   1_455  A
O1363     Co1383   1.987       .  S
O1363      C1371   1.273       .  A
O1364     Co1384   1.883       .  S
O1364      C1372   1.278       .  A
O1365     Co1382   1.989       .  S
O1365      C1371   1.276       .  A
O1366     Co1381   2.062       .  S
O1366      C1372   1.292       .  A
O1367     Co1384   1.983       .  S
O1367      C4770   1.246   1_455  A
O1368     Co1383   1.981       .  S
O1368      C1369   1.271       .  A
C1369      O2041   1.275       .  A
C1369      C2031   1.484       .  S
C1370      O4082   1.262       .  A
C1370      O4767   1.246       .  A
C1370      C2000   1.481       .  S
C1371      C1930   1.471       .  S
C1372      C1944   1.460       .  S
O1373     Co1381   1.900       .  S
O1373      C1386   1.269       .  A
O1374     Co1382   2.023       .  S
O1374      C1387   1.276       .  A
O1375     Co1383   1.982       .  S
O1375      C2068   1.257       .  A
O1376     Co1384   2.156       .  S
O1376      C1389   1.319   1_554  A
O1377     Co1382   1.852       .  S
O1377      C2069   1.277       .  A
O1378     Co1381   1.954       .  S
O1378      C1388   1.250   1_554  A
O1379     Co1384   2.115       .  S
O1379      C1386   1.307       .  A
O1380     Co1383   2.000       .  S
O1380      C1387   1.278       .  A
Co1381     O1385   1.945   1_554  S
Co1382     O2065   1.880       .  S
Co1383     O2065   2.011       .  S
Co1384     O1385   2.033   1_554  S
O1385     Co2062   1.880       .  S
O1385     Co2063   2.011       .  S
C1386      C1975   1.494       .  S
C1387      C1961   1.526       .  S
C1388      O2055   1.257       .  A
C1388      C2014   1.432       .  S
C1389      O2057   1.277       .  A
C1389      C1986   1.504       .  S
O1390     Co1410   1.986       .  S
O1390      C1398   1.269       .  A
O1391     Co1411   1.957       .  S
O1391      C2079   1.244       .  A
O1392     Co1412   1.973       .  S
O1392      C1400   1.272       .  A
O1393     Co1413   2.057       .  S
O1393      C1401   1.299       .  A
O1394     Co1411   2.013       .  S
O1394      C1400   1.283       .  A
O1395     Co1410   1.964       .  S
O1395      C1401   1.259       .  A
O1396     Co1413   2.066       .  S
O1396      C1399   1.280       .  A
O1397     Co1412   1.984       .  S
O1397      C2078   1.271       .  A
C1398      O2077   1.271   1_554  A
C1398      C1902   1.479       .  S
C1399      O2071   1.244   1_554  A
C1399      C2683   1.484       .  S
C1400      C1874   1.466       .  S
C1401      C1888   1.485       .  S
O1402     Co1410   1.889       .  S
O1402      C1415   1.266       .  A
O1403     Co1411   2.025       .  S
O1403      C1416   1.271       .  A
O1404     Co1412   1.972       .  S
O1404      C2097   1.260       .  A
O1405     Co1413   1.981       .  S
O1405      C2098   1.291   1_554  A
O1406     Co1411   1.986       .  S
O1406      C1418   1.294       .  A
O1407     Co1410   1.944       .  S
O1407      C1417   1.256   1_554  A
O1408     Co1413   2.146       .  S
O1408      C1415   1.310       .  A
O1409     Co1412   2.010       .  S
O1409      C1416   1.268       .  A
Co1410     O1414   1.891   1_554  S
Co1411     O2094   1.999       .  S
Co1412     O2094   2.023       .  S
Co1413     O1414   2.044   1_554  S
O1414     Co2091   1.999       .  S
O1414     Co2092   2.023       .  S
C1415      C1860   1.500       .  S
C1416      C1846   1.505       .  S
C1417      O2084   1.260       .  A
C1417      C2017   1.452       .  S
C1418      O2085   1.291       .  A
C1418      C2596   1.497       .  S
O1419     Co1439   1.988       .  S
O1419      C2107   1.270       .  A
O1420     Co1440   1.994       .  S
O1420      C1428   1.266       .  A
O1421     Co1441   1.997       .  S
O1421      C1429   1.282       .  A
O1422     Co1442   2.003       .  S
O1422      C1430   1.270       .  A
O1423     Co1440   2.133       .  S
O1423      C1429   1.320       .  A
O1424     Co1439   2.007       .  S
O1424      C1430   1.267       .  A
O1425     Co1442   1.992       .  S
O1425      C2108   1.253   1_554  A
O1426     Co1441   1.988       .  S
O1426      C1427   1.276       .  A
C1427      O2099   1.270       .  A
C1427      C2028   1.496       .  S
C1428      O2105   1.253       .  A
C1428      C1821   1.457       .  S
C1429      C1762   1.518       .  S
C1430      C1779   1.500       .  S
O1431     Co1439   1.875       .  S
O1431      C1444   1.273       .  A
O1432     Co1440   1.992       .  S
O1432      C1445   1.258       .  A
O1433     Co1441   1.997       .  S
O1433      C1446   1.268       .  A
O1434     Co1442   1.972       .  S
O1434      C2127   1.289       .  A
O1435     Co1440   1.985       .  S
O1435      C1447   1.291       .  A
O1436     Co1439   1.986       .  S
O1436      C2126   1.256       .  A
O1437     Co1442   2.133       .  S
O1437      C1444   1.314       .  A
O1438     Co1441   1.985       .  S
O1438      C1445   1.264       .  A
Co1439     O2123   1.873       .  S
Co1440     O1443   1.983       .  S
Co1441     O1443   2.050       .  S
Co1442     O2123   2.075       .  S
O1443     Co2119   1.873       .  S
O1443     Co2122   2.075       .  S
C1444      C1807   1.483       .  S
C1445      C1790   1.485       .  S
C1446      O2116   1.256       .  A
C1446      C1832   1.474       .  S
C1447      O2114   1.289       .  A
C1447      C1905   1.487       .  S
O1448     Co1468   1.979       .  S
O1448      C2136   1.267   1_554  A
O1449     Co1469   1.972       .  S
O1449      C2137   1.240       .  A
O1450     Co1470   2.111       .  S
O1450      C1458   1.306       .  A
O1451     Co1471   2.025       .  S
O1451      C1459   1.286       .  A
O1452     Co1469   1.919       .  S
O1452      C1458   1.273       .  A
O1453     Co1468   1.987       .  S
O1453      C1459   1.276       .  A
O1454     Co1471   2.002       .  S
O1454      C1457   1.249   1_554  A
O1455     Co1470   1.995       .  S
O1455      C1456   1.268       .  A
C1456      O2128   1.267       .  A
C1456      C2669   1.495       .  S
C1457      O2129   1.240       .  A
C1457      C1818   1.455       .  S
C1458      C1737   1.506       .  S
C1459      C1748   1.478       .  S
O1460     Co1468   2.008       .  S
O1460      C1473   1.269       .  A
O1461     Co1469   2.113       .  S
O1461      C1474   1.303       .  A
O1462     Co1470   1.986       .  S
O1462      C2155   1.257       .  A
O1463     Co1471   1.871       .  S
O1463      C1476   1.286   1_554  A
O1464     Co1469   2.137       .  S
O1464      C2156   1.316       .  A
O1465     Co1468   2.015       .  S
O1465      C1475   1.272       .  A
O1466     Co1471   2.002       .  S
O1466      C1473   1.272       .  A
O1467     Co1470   1.898       .  S
O1467      C1474   1.260       .  A
Co1468     O1472   2.018       .  S
Co1469     O2152   2.032       .  S
Co1470     O2152   1.973       .  S
Co1471     O1472   1.900       .  S
O1472     Co2149   2.032   1_554  S
O1472     Co2150   1.973   1_554  S
C1473      C1720   1.492       .  S
C1474      C1709   1.483       .  S
C1475      O2142   1.257   1_554  A
C1475      C4555   1.475       .  S
C1476      O2144   1.316       .  A
C1476      C1919   1.500       .  S
O1477     Co1497   2.103       .  S
O1477      C1485   1.294       .  A
O1478     Co1498   2.131       .  S
O1478      C1486   1.284       .  A
O1479     Co1499   1.997       .  S
O1479      C1487   1.277       .  A
O1480     Co1500   1.948       .  S
O1480      C1488   1.253       .  A
O1481     Co1498   1.988       .  S
O1481      C1487   1.265       .  A
O1482     Co1497   2.000       .  S
O1482      C1488   1.259       .  A
O1483     Co1500   1.924       .  S
O1483      C1486   1.236       .  A
O1484     Co1499   1.929       .  S
O1484      C1485   1.278       .  A
C1485      C1863   1.506       .  S
C1486      C1849   1.515       .  S
C1487      C1664   1.499       .  S
C1488      C1678   1.463       .  S
O1489     Co1497   1.967       .  S
O1489      C1502   1.271       .  A
O1490     Co1498   1.964       .  S
O1490      C1503   1.253       .  A
O1491     Co1499   2.120       .  S
O1491      C1504   1.294       .  A
O1492     Co1500   2.112       .  S
O1492      C1505   1.279       .  A
O1493     Co1498   1.945       .  S
O1493      C1505   1.239       .  A
O1494     Co1497   1.915       .  S
O1494      C1504   1.267       .  A
O1495     Co1500   1.998       .  S
O1495      C1502   1.274       .  A
O1496     Co1499   2.011       .  S
O1496      C1503   1.272       .  A
Co1497     O1501   2.004       .  S
Co1498     O1501   2.007       .  S
Co1499     O1501   2.032       .  S
Co1500     O1501   2.030       .  S
C1503      C1692   1.474       .  S
C1504      C1972   1.487       .  S
C1505      C1958   1.515       .  S
O1506     Co1526   2.038       .  S
O1506      C1514   1.283       .  A
O1507     Co1527   2.067       .  S
O1507      C1515   1.266       .  A
O1508     Co1528   2.006       .  S
O1508      C1516   1.276       .  A
O1509     Co1529   1.940       .  S
O1509      C1517   1.244       .  A
O1510     Co1527   2.036       .  S
O1510      C1516   1.276       .  A
O1511     Co1526   2.011       .  S
O1511      C1517   1.261       .  A
O1512     Co1529   1.944       .  S
O1512      C1515   1.239       .  A
O1513     Co1528   1.956       .  S
O1513      C1514   1.283       .  A
C1514      C1891   1.496       .  S
C1515      C1877   1.491       .  S
C1516      C1622   1.511       .  S
C1517      C1681   1.460       .  S
O1518     Co1526   1.962       .  S
O1518      C1531   1.267       .  A
O1519     Co4247   1.889       .  S
O1519      C1532   1.247       .  A
O1520     Co1528   2.034       .  S
O1520      C1533   1.286       .  A
O1521     Co1529   2.059       .  S
O1521      C1534   1.270       .  A
O1522     Co1527   1.954       .  S
O1522      C1534   1.243       .  A
O1523     Co1526   1.993       .  S
O1523      C1533   1.271       .  A
O1524     Co1529   2.040       .  S
O1524      C1531   1.281       .  A
O1525     Co4248   2.137       .  S
O1525      C1532   1.315       .  A
Co1526     O1530   2.130       .  S
Co1527     O4239   1.889       .  S
Co1527     O1530   2.063       .  S
Co1528     O4245   2.137       .  S
Co1528     O1530   1.935       .  S
Co1529     O1530   2.031       .  S
C1531      C1639   1.500       .  S
C1532      C1695   1.465   1_655  S
C1533      C1947   1.485       .  S
C1534      C1933   1.474       .  S
O1535     Co1555   2.100       .  S
O1535      C1543   1.288       .  A
O1536     Co1556   2.035       .  S
O1536      C1544   1.265       .  A
O1537     Co1557   2.013       .  S
O1537      C1545   1.266       .  A
O1538     Co4278   1.919       .  S
O1538      C1546   1.243       .  A
O1539     Co1556   1.980       .  S
O1539      C1545   1.259       .  A
O1540     Co4275   2.038       .  S
O1540      C1546   1.275       .  A
O1541     Co1558   1.957       .  S
O1541      C1544   1.242       .  A
O1542     Co1557   1.934       .  S
O1542      C1543   1.263       .  A
C1543      C1723   1.501       .  S
C1544      C1706   1.485       .  S
C1545      C1667   1.485       .  S
C1546      C1594   1.467       .  S
O1547     Co1555   1.994       .  S
O1547      C1560   1.274       .  A
O1548     Co1556   1.924       .  S
O1548      C1561   1.247       .  A
O1549     Co1557   2.138       .  S
O1549      C1562   1.315       .  A
O1550     Co1558   2.088       .  S
O1550      C1563   1.281       .  A
O1551     Co1556   1.942       .  S
O1551      C1563   1.243       .  A
O1552     Co1555   1.929       .  S
O1552      C1562   1.276       .  A
O1553     Co1558   2.025       .  S
O1553      C1560   1.274       .  A
O1554     Co1557   2.039       .  S
O1554      C1561   1.289       .  A
Co1555     O4260   2.038       .  S
Co1555     O1559   2.064       .  S
Co1556     O1559   2.047       .  S
Co1557     O1559   2.003       .  S
Co1558     O4258   1.919       .  S
Co1558     O1559   2.026       .  S
C1560      C1625   1.502       .  S
C1561      C1611   1.455       .  S
C1562      C1804   1.494       .  S
C1563      C1793   1.495       .  S
O1564     Co1584   1.946       .  S
O1564      C1572   1.244       .  A
O1565     Co1585   1.957       .  S
O1565      C1573   1.274       .  A
O1566     Co1586   2.029       .  S
O1566      C1574   1.279       .  A
O1567     Co1587   2.045       .  S
O1567      C1575   1.276       .  A
O1568     Co1585   1.957       .  S
O1568      C1574   1.268       .  A
O1569     Co1584   1.925       .  S
O1569      C1575   1.241       .  A
O1570     Co1587   2.066       .  S
O1570      C1573   1.276       .  A
O1571     Co1586   2.069       .  S
O1571      C1572   1.272       .  A
C1572      C1751   1.502       .  S
C1573      C1734   1.491       .  S
C1574      C1653   1.486       .  S
C1575      C1597   1.468       .  S
O1576     Co1584   2.023       .  S
O1576      C1589   1.282       .  A
O1577     Co1585   2.048       .  S
O1577      C1590   1.268       .  A
O1578     Co1586   1.949       .  S
O1578      C1591   1.251       .  A
O1579     Co1587   1.974       .  S
O1579      C1592   1.284       .  A
O1580     Co1585   2.065       .  S
O1580      C1592   1.284       .  A
O1581     Co1584   2.068       .  S
O1581      C1591   1.282       .  A
O1582     Co1587   1.972       .  S
O1582      C1589   1.275       .  A
O1583     Co1586   1.923       .  S
O1583      C1590   1.241       .  A
Co1584     O1588   1.968       .  S
Co1585     O1588   2.031       .  S
Co1586     O1588   2.011       .  S
Co1587     O1588   2.040       .  S
C1589      C1636   1.500       .  S
C1590      C1608   1.480       .  S
C1591      C1776   1.491       .  S
C1592      C1765   1.525       .  S
C1593      C1594   1.392       .  A
C1593      C1598   1.399       .  A
C1593      H1600   1.084       .  S
C1594      C1595   1.426       .  A
C1595      C1596   1.398       .  A
C1595      N1602   1.444       .  S
C1596      C1597   1.393       .  A
C1596      H1601   1.084       .  S
C1597      C1598   1.428       .  A
C1598      N1599   1.440       .  S
N1599      O1603   1.263       .  A
N1599      O1604   1.261       .  A
N1602      O1605   1.262       .  A
N1602      O1606   1.262       .  A
C1607      C1608   1.402       .  A
C1607      C1612   1.411       .  A
C1607      H1614   1.083       .  S
C1608      C1609   1.422       .  A
C1609      C1610   1.390       .  A
C1609      N1616   1.433       .  S
C1610      C1611   1.383       .  A
C1610      H1615   1.084       .  S
C1611      C1612   1.419       .  A
C1612      N1613   1.442       .  S
N1613      O1617   1.263       .  A
N1613      O1618   1.262       .  A
N1616      O1619   1.264       .  A
N1616      O1620   1.259       .  A
C1621      C1622   1.407       .  A
C1621      C4346   1.409       .  A
C1621      H1628   1.084       .  S
C1622      C4343   1.423       .  A
C1623      C4342   1.423   1_455  A
C1623      C1624   1.417       .  A
C1623      N1630   1.433       .  S
C1624      H1629   1.084       .  S
C1626      C4341   1.409   1_455  A
C1626      N2987   1.428       .  S
N1627      C2986   1.428       .  S
N1627      O1631   1.262       .  A
N1627      O4352   1.261       .  A
N1630      O4353   1.261   1_455  A
N1630      O1634   1.263       .  A
O1632      N4347   1.261       .  A
O1633      N4350   1.261       .  A
C1635      C1636   1.410       .  A
C1635      C1640   1.403       .  A
C1635      H1642   1.083       .  S
C1636      C1637   1.417       .  A
C1637      C1638   1.410       .  A
C1637      N1644   1.435       .  S
C1638      C1639   1.410       .  A
C1638      H1643   1.083       .  S
C1639      C1640   1.418       .  A
C1640      N1641   1.437       .  S
N1641      O1645   1.263       .  A
N1641      O1646   1.263       .  A
N1644      O1647   1.263       .  A
N1644      O1648   1.262       .  A
C1649      C1650   1.406       .  A
C1649      C1654   1.404   1_545  A
C1649      H1656   1.083       .  S
C1650      C1651   1.417       .  A
C1651      C1652   1.399   1_545  A
C1652      C1653   1.406       .  A
C1652      H1657   1.083       .  S
C1653      C1654   1.418       .  A
C1654      N1655   1.438       .  S
N1655      O1659   1.262       .  A
N1655      O1660   1.262       .  A
N1658      O1661   1.263       .  A
N1658      O1662   1.263       .  A
C1663      C1664   1.404       .  A
C1663      C1668   1.408       .  A
C1663      H1670   1.083       .  S
C1664      C1665   1.431       .  A
C1665      C1666   1.401       .  A
C1665      N1672   1.434       .  S
C1666      C1667   1.394       .  A
C1666      H1671   1.085       .  S
C1667      C1668   1.409       .  A
C1668      N1669   1.424       .  S
N1669      O1673   1.260       .  A
N1669      O1674   1.262       .  A
N1672      O1675   1.263       .  A
N1672      O1676   1.262       .  A
C1677      C1678   1.405       .  A
C1677      C1682   1.388       .  A
C1677      H1684   1.085       .  S
C1678      C1679   1.408       .  A
C1679      C1680   1.400       .  A
C1679      N1686   1.437       .  S
C1680      C1681   1.407       .  A
C1680      H1685   1.084       .  S
C1681      C1682   1.404       .  A
C1682      N1683   1.431       .  S
N1683      O1687   1.262       .  A
N1683      O1688   1.260       .  A
N1686      O1689   1.262       .  A
N1686      O1690   1.263       .  A
C1691      C1692   1.398       .  A
C1691      C1696   1.396       .  A
C1691      H1698   1.084       .  S
C1692      C1693   1.423       .  A
C1693      C1694   1.396       .  A
C1693      N1700   1.435       .  S
C1694      C1695   1.394       .  A
C1694      H1699   1.085       .  S
C1695      C1696   1.422       .  A
C1696      N1697   1.440       .  S
N1697      O1701   1.263       .  A
N1697      O1702   1.261       .  A
N1700      O1703   1.262       .  A
N1700      O1704   1.262       .  A
C1705      C1706   1.396       .  A
C1705      C1710   1.399       .  A
C1705      H1712   1.084       .  S
C1706      C4427   1.419       .  A
C1707      C4426   1.419       .  A
C1707      C1708   1.413       .  A
C1707      N1714   1.442       .  S
C1708      C1709   1.403       .  A
C1708      H1713   1.084       .  S
C1709      C4430   1.428       .  A
C1710      C4429   1.428   1_455  A
C1710      N1711   1.443       .  S
N1711      O1715   1.262       .  A
N1711      O4436   1.260       .  A
N1714      O1717   1.263       .  A
N1714      O1718   1.263       .  A
O1716      N4431   1.260       .  A
C1719      C4440   1.404   1_455  A
C1719      C1724   1.419       .  A
C1719      H1726   1.078       .  S
C1720      C4439   1.404       .  A
C1720      C1721   1.411       .  A
C1721      C1722   1.406       .  A
C1721      N1728   1.442       .  S
C1722      C4443   1.407       .  A
C1722      H1727   1.079       .  S
C1723      C4442   1.407   1_455  A
C1723      C1724   1.430       .  A
C1724      N1725   1.448       .  S
N1725      O1729   1.263       .  A
N1725      O1730   1.260       .  A
N1728      O1731   1.262       .  A
N1728      O1732   1.263       .  A
C1733      C1734   1.394       .  A
C1733      C1738   1.405       .  A
C1733      H1740   1.080       .  S
C1734      C1735   1.421       .  A
C1735      C1736   1.423       .  A
C1735      N1742   1.441       .  S
C1736      C1737   1.408       .  A
C1736      H1741   1.083       .  S
C1737      C1738   1.425       .  A
C1738      N1739   1.437       .  S
N1739      O1743   1.261       .  A
N1739      O1744   1.261       .  A
N1742      O1745   1.263       .  A
N1742      O1746   1.263       .  A
C1747      C1748   1.408       .  A
C1747      C1752   1.420       .  A
C1747      H1754   1.083       .  S
C1748      C1749   1.406       .  A
C1749      C1750   1.397       .  A
C1749      N1756   1.443       .  S
C1750      C1751   1.415       .  A
C1750      H1755   1.083       .  S
C1751      C1752   1.421       .  A
C1752      N1753   1.445       .  S
N1753      O1757   1.261       .  A
N1753      O1758   1.263       .  A
N1756      O1759   1.263       .  A
N1756      O1760   1.262       .  A
C1761      C1762   1.396       .  A
C1761      C1766   1.395       .  A
C1761      H1768   1.084       .  S
C1762      C1763   1.440       .  A
C1763      C1764   1.438       .  A
C1763      N1770   1.447       .  S
C1764      C1765   1.411       .  A
C1764      H1769   1.082       .  S
C1765      C1766   1.423       .  A
C1766      N1767   1.427       .  S
N1767      O1771   1.261       .  A
N1767      O1772   1.262       .  A
N1770      O1773   1.260       .  A
N1770      O1774   1.263       .  A
C1775      C1776   1.397       .  A
C1775      C1780   1.404       .  A
C1775      H1782   1.083       .  S
C1776      C1777   1.424       .  A
C1777      C1778   1.419       .  A
C1777      N1784   1.444       .  S
C1778      C1779   1.403       .  A
C1778      H1783   1.083       .  S
C1779      C1780   1.411       .  A
C1780      N1781   1.426       .  S
N1781      O1785   1.261       .  A
N1781      O1786   1.260       .  A
N1784      O1787   1.263       .  A
N1784      O1788   1.263       .  A
C1789      C1790   1.390       .  A
C1789      C1794   1.384       .  A
C1789      H1796   1.084       .  S
C1790      C1791   1.420       .  A
C1791      C1792   1.421       .  A
C1791      N1798   1.432       .  S
C1792      C1793   1.406       .  A
C1792      H1797   1.083       .  S
C1793      C1794   1.424       .  A
C1794      N1795   1.429       .  S
N1795      O1799   1.262       .  A
N1795      O1800   1.262       .  A
N1798      O1801   1.262       .  A
N1798      O1802   1.263       .  A
C1803      C1804   1.410       .  A
C1803      C1808   1.412       .  A
C1803      H1810   1.078       .  S
C1804      C1805   1.411       .  A
C1805      C1806   1.412       .  A
C1805      N1812   1.439       .  S
C1806      C1807   1.406       .  A
C1806      H1811   1.076       .  S
C1807      C1808   1.407       .  A
C1808      N1809   1.442       .  S
N1809      O1813   1.261       .  A
N1809      O1814   1.263       .  A
N1812      O1815   1.262       .  A
N1812      O1816   1.261       .  A
C1817      C2498   1.399       .  A
C1817      C1822   1.399       .  A
C1817      H1824   1.084       .  S
C1818      C2497   1.399       .  A
C1818      C1819   1.411       .  A
C1819      C1820   1.392       .  A
C1819      N1826   1.433       .  S
C1820      C2501   1.391       .  A
C1820      H1825   1.080       .  S
C1821      C2500   1.391       .  A
C1821      C1822   1.407       .  A
C1822      N1823   1.432       .  S
N1823      O1827   1.262       .  A
N1823      O1828   1.262       .  A
N1826      O1829   1.261   1_556  A
N1826      O1830   1.262       .  A
C1831      C1832   1.400       .  A
C1831      C1836   1.393       .  A
C1831      H1838   1.084       .  S
C1832      C2513   1.424       .  A
C1833      C2512   1.424       .  A
C1833      C1834   1.405       .  A
C1833      N1840   1.446       .  S
C1834      C1835   1.401       .  A
C1834      H1839   1.084       .  S
C1835      C4195   1.475       .  S
C1835      C2516   1.419   1_554  A
C1836      C2515   1.419       .  A
C1836      N1837   1.437       .  S
N1837      O1841   1.263       .  A
N1837      O5242   1.259       .  A
N1840      O2523   1.260       .  A
N1840      O1844   1.263       .  A
O1842      N5237   1.259   1_554  A
O1843      N2520   1.260       .  A
C1845      C1846   1.397       .  A
C1845      C1850   1.406       .  A
C1845      H1852   1.084       .  S
C1846      C1847   1.422       .  A
C1847      C1848   1.425       .  A
C1847      N1854   1.434       .  S
C1848      C1849   1.404       .  A
C1848      H1853   1.083       .  S
C1849      C1850   1.431       .  A
C1850      N1851   1.439       .  S
N1851      O1855   1.263       .  A
N1851      O1856   1.263       .  A
N1854      O1857   1.263       .  A
N1854      O1858   1.262       .  A
C1859      C1860   1.412       .  A
C1859      C1864   1.419       .  A
C1859      H1866   1.076       .  S
C1860      C1861   1.405       .  A
C1861      C1862   1.404       .  A
C1861      N1868   1.430       .  S
C1862      C1863   1.407       .  A
C1862      H1867   1.074       .  S
C1863      C1864   1.413       .  A
C1864      N1865   1.430       .  S
N1865      O1869   1.262       .  A
N1865      O1870   1.262       .  A
N1868      O1871   1.261       .  A
N1868      O1872   1.262       .  A
C1873      C1874   1.405       .  A
C1873      C1878   1.412       .  A
C1873      H1880   1.083       .  S
C1874      C1875   1.406       .  A
C1875      C1876   1.395       .  A
C1875      N1882   1.442       .  S
C1876      C1877   1.413       .  A
C1876      H1881   1.083       .  S
C1877      C1878   1.417       .  A
C1878      N1879   1.441       .  S
N1879      O1883   1.262       .  A
N1879      O1884   1.261       .  A
N1882      O1885   1.263       .  A
N1882      O1886   1.262       .  A
C1887      C1888   1.389       .  A
C1887      C1892   1.376       .  A
C1887      H1894   1.083       .  S
C1888      C1889   1.421       .  A
C1889      C1890   1.424       .  A
C1889      N1896   1.439       .  S
C1890      C1891   1.411       .  A
C1890      H1895   1.083       .  S
C1891      C1892   1.424       .  A
C1892      N1893   1.433       .  S
N1893      O1897   1.261       .  A
N1893      O1898   1.260       .  A
N1896      O1899   1.263       .  A
N1896      O1900   1.263       .  A
C1901      C1906   1.402   1_545  A
C1901      H1908   1.084       .  S
C1902      C2583   1.417   1_554  A
C1903      C2582   1.417       .  A
C1903      N1910   1.440       .  S
C1904      C1905   1.405       .  A
C1905      C2586   1.411       .  A
C1906      C2585   1.411       .  A
C1906      N1907   1.430       .  S
N1907      O1911   1.260       .  A
N1907      O1912   1.262   1_565  A
N1910      O1913   1.262       .  A
N1910      O1914   1.262       .  A
C1915      C2596   1.408       .  A
C1915      C1920   1.415       .  A
C1915      H1922   1.083       .  S
C1916      C2098   1.497       .  S
C1916      C2595   1.408       .  A
C1916      C1917   1.417   1_556  A
C1917      C1918   1.397       .  A
C1917      N1924   1.431       .  S
C1918      C1919   1.406   1_554  A
C1918      H1923   1.083       .  S
C1919      C2600   1.422       .  A
C1920      C2599   1.422       .  A
C1920      N1921   1.437       .  S
N1921      O1925   1.263       .  A
N1921      O2606   1.263       .  A
N1924      O2607   1.262       .  A
N1924      O1928   1.262       .  A
O1926      N2601   1.263       .  A
O1927      N2604   1.262       .  A
C1929      C4650   1.412       .  A
C1929      C1934   1.418       .  A
C1929      H1936   1.083       .  S
C1930      C4649   1.412   1_455  A
C1930      C1931   1.406       .  A
C1931      C1932   1.378   1_455  A
C1931      N1938   1.435       .  S
C1932      C4653   1.403       .  A
C1932      H1937   1.082       .  S
C1933      C4652   1.403       .  A
C1933      C1934   1.416       .  A
C1934      N1935   1.445       .  S
N1935      O1939   1.263       .  A
N1935      O1940   1.262       .  A
N1938      O1941   1.262       .  A
N1938      O1942   1.262       .  A
C1943      C4664   1.406       .  A
C1943      C1948   1.418       .  A
C1943      H1950   1.083       .  S
C1944      C4663   1.406       .  A
C1944      C1945   1.388       .  A
C1945      C1946   1.373       .  A
C1945      N1952   1.435       .  S
C1946      C4667   1.406   1_455  A
C1946      H1951   1.076       .  S
C1947      C4666   1.406       .  A
C1947      C1948   1.423       .  A
C1948      N1949   1.440       .  S
N1949      O1953   1.263       .  A
N1949      O1954   1.260       .  A
N1952      O1955   1.262       .  A
N1952      O1956   1.262       .  A
C1957      C1958   1.413       .  A
C1957      C1962   1.440       .  A
C1957      H1964   1.083       .  S
C1958      C1959   1.416       .  A
C1959      C1960   1.384       .  A
C1959      N1966   1.427       .  S
C1960      C1961   1.400       .  A
C1960      H1965   1.083       .  S
C1961      C1962   1.441       .  A
C1962      N1963   1.446       .  S
N1963      O1967   1.263       .  A
N1963      O1968   1.260       .  A
N1966      O1969   1.261       .  A
N1966      O1970   1.262       .  A
C1971      C1972   1.400       .  A
C1971      C1976   1.408       .  A
C1971      H1978   1.084       .  S
C1972      C1973   1.419       .  A
C1973      C1974   1.418       .  A
C1973      N1980   1.443       .  S
C1974      C1975   1.403       .  A
C1974      H1979   1.083       .  S
C1975      C1976   1.414       .  A
C1976      N1977   1.435       .  S
N1977      O1981   1.263       .  A
N1977      O1982   1.261       .  A
N1980      O1983   1.263       .  A
N1980      O1984   1.262       .  A
C1985      C4710   1.402   1_445  A
C1985      H1992   1.083       .  S
C1986      C4707   1.420   1_456  A
C1987      C4706   1.420   1_554  A
C1987      C1988   1.413       .  A
C1987      N1994   1.436       .  S
C1988      H1993   1.083       .  S
C1989      C2136   1.495       .  S
C1989      C2670   1.415       .  A
C1990      C4705   1.402   1_565  A
C1990      C2669   1.415       .  A
C1990      N1991   1.438       .  S
N1991      O4715   1.263       .  A
N1991      O2676   1.263       .  A
N1994      O2677   1.263       .  A
N1994      O1998   1.262       .  A
O1995      N4711   1.263   1_455  A
O1996      N2671   1.263       .  A
O1997      N2674   1.263       .  A
C1999      C2000   1.397       .  A
C1999      C2004   1.396       .  A
C1999      H2006   1.082       .  S
C2000      C2681   1.426       .  A
C2001      C2680   1.426       .  A
C2001      C2002   1.411       .  A
C2001      N2008   1.441       .  S
C2002      C2683   1.400       .  A
C2002      H2007   1.079       .  S
C2003      C2079   1.484       .  S
C2003      C2682   1.400       .  A
C2003      C2004   1.415       .  A
C2004      N2005   1.435       .  S
N2005      O2009   1.260       .  A
N2005      O2010   1.261       .  A
N2008      O2011   1.261       .  A
N2008      O2012   1.263       .  A
C2013      C2694   1.387       .  A
C2013      C2018   1.382       .  A
C2013      H2020   1.064       .  S
C2014      C2693   1.387       .  A
C2014      C2015   1.403   1_556  A
C2015      C2016   1.385       .  A
C2015      N2022   1.432       .  S
C2016      C2017   1.402   1_554  A
C2016      H2021   1.079       .  S
C2017      C2698   1.407       .  A
C2018      C2697   1.407       .  A
C2018      N2019   1.427       .  S
N2019      O2703   1.262       .  A
N2019      O2024   1.262       .  A
N2022      O2025   1.259       .  A
N2022      O2706   1.262       .  A
O2023      N2699   1.262       .  A
O2026      N2702   1.262       .  A
C2027      C2708   1.417       .  A
C2027      C2032   1.414       .  A
C2027      H2034   1.082       .  S
C2028      C2707   1.417       .  A
C2028      C2029   1.410       .  A
C2029      C2030   1.400       .  A
C2029      N2036   1.437       .  S
C2030      C2031   1.407       .  A
C2030      H2035   1.076       .  S
C2031      C2712   1.412       .  A
C2032      C2711   1.412       .  A
C2032      N2033   1.444       .  S
N2033      O2037   1.263       .  A
N2033      O2718   1.262       .  A
N2036      O2719   1.263       .  A
N2036      O2040   1.262       .  A
O2038      N2713   1.262       .  A
O2039      N2716   1.263       .  A
O2041     Co2061   2.015       .  S
O2042     Co2062   2.028       .  S
O2042      C4770   1.262   1_456  A
O2043     Co2063   1.987       .  S
O2043      C2051   1.273       .  A
O2044     Co2064   1.883       .  S
O2044      C2052   1.278       .  A
O2045     Co2062   1.989       .  S
O2045      C2051   1.276       .  A
O2046     Co2061   2.062       .  S
O2046      C2052   1.292       .  A
O2047     Co2064   1.983       .  S
O2047      C4090   1.246   1_455  A
O2048     Co2063   1.981       .  S
O2048      C2049   1.271   1_556  A
C2049      C2711   1.484       .  S
C2050      O4762   1.262   1_554  A
C2050      O4087   1.246       .  A
C2050      C2680   1.481       .  S
C2051      C2610   1.471       .  S
C2052      C2624   1.460       .  S
O2053     Co2061   1.900       .  S
O2053      C2066   1.269       .  A
O2054     Co2062   2.023       .  S
O2054      C2067   1.276       .  A
O2055     Co2063   1.982       .  S
O2056     Co2064   2.156       .  S
O2056      C2069   1.319       .  A
O2057     Co2062   1.852       .  S
O2058     Co2061   1.954       .  S
O2058      C2068   1.250       .  A
O2059     Co2064   2.115       .  S
O2059      C2066   1.307       .  A
O2060     Co2063   2.000       .  S
O2060      C2067   1.278       .  A
Co2061     O2065   1.945       .  S
Co2064     O2065   2.033       .  S
C2066      C2655   1.494       .  S
C2067      C2641   1.526       .  S
C2068      C2694   1.432       .  S
C2069      C2666   1.504       .  S
O2070     Co2090   1.986       .  S
O2070      C2078   1.269       .  A
O2071     Co2091   1.957       .  S
O2072     Co2092   1.973       .  S
O2072      C2080   1.272       .  A
O2073     Co2093   2.057       .  S
O2073      C2081   1.299       .  A
O2074     Co2091   2.013       .  S
O2074      C2080   1.283       .  A
O2075     Co2090   1.964       .  S
O2075      C2081   1.259       .  A
O2076     Co2093   2.066       .  S
O2076      C2079   1.280       .  A
O2077     Co2092   1.984       .  S
C2078      C2582   1.479       .  S
C2080      C2554   1.466       .  S
C2081      C2568   1.485       .  S
O2082     Co2090   1.889       .  S
O2082      C2095   1.266       .  A
O2083     Co2091   2.025       .  S
O2083      C2096   1.271       .  A
O2084     Co2092   1.972       .  S
O2085     Co2093   1.981       .  S
O2086     Co2091   1.986       .  S
O2086      C2098   1.294       .  A
O2087     Co2090   1.944       .  S
O2087      C2097   1.256       .  A
O2088     Co2093   2.146       .  S
O2088      C2095   1.310       .  A
O2089     Co2092   2.010       .  S
O2089      C2096   1.268       .  A
Co2090     O2094   1.891       .  S
Co2093     O2094   2.044       .  S
C2095      C2540   1.500       .  S
C2096      C2526   1.505       .  S
C2097      C2697   1.452       .  S
O2099     Co2119   1.988       .  S
O2100     Co2120   1.994       .  S
O2100      C2108   1.266       .  A
O2101     Co2121   1.997       .  S
O2101      C2109   1.282       .  A
O2102     Co2122   2.003       .  S
O2102      C2110   1.270       .  A
O2103     Co2120   2.133       .  S
O2103      C2109   1.320       .  A
O2104     Co2119   2.007       .  S
O2104      C2110   1.267       .  A
O2105     Co2122   1.992       .  S
O2106     Co2121   1.988       .  S
O2106      C2107   1.276   1_556  A
C2107      C2708   1.496       .  S
C2108      C2501   1.457       .  S
C2109      C2442   1.518       .  S
C2110      C2459   1.500       .  S
O2111     Co2119   1.875       .  S
O2111      C2124   1.273       .  A
O2112     Co2120   1.992       .  S
O2112      C2125   1.258       .  A
O2113     Co2121   1.997       .  S
O2113      C2126   1.268   1_556  A
O2114     Co2122   1.972       .  S
O2115     Co2120   1.985       .  S
O2115      C2127   1.291   1_556  A
O2116     Co2119   1.986       .  S
O2117     Co2122   2.133       .  S
O2117      C2124   1.314       .  A
O2118     Co2121   1.985       .  S
O2118      C2125   1.264       .  A
Co2120     O2123   1.983   1_556  S
Co2121     O2123   2.050   1_556  S
C2124      C2487   1.483       .  S
C2125      C2470   1.485       .  S
C2126      C2512   1.474       .  S
C2127      C2585   1.487       .  S
O2128     Co2148   1.979       .  S
O2129     Co2149   1.972       .  S
O2130     Co2150   2.111       .  S
O2130      C2138   1.306       .  A
O2131     Co2151   2.025       .  S
O2131      C2139   1.286       .  A
O2132     Co2149   1.919       .  S
O2132      C2138   1.273       .  A
O2133     Co2148   1.987       .  S
O2133      C2139   1.276       .  A
O2134     Co2151   2.002       .  S
O2134      C2137   1.249       .  A
O2135     Co2150   1.995       .  S
O2135      C2136   1.268       .  A
C2137      C2498   1.455       .  S
C2138      C2417   1.506       .  S
C2139      C2428   1.478       .  S
O2140     Co2148   2.008       .  S
O2140      C2153   1.269       .  A
O2141     Co2149   2.113       .  S
O2141      C2154   1.303       .  A
O2142     Co2150   1.986       .  S
O2143     Co2151   1.871       .  S
O2143      C2156   1.286       .  A
O2144     Co2149   2.137       .  S
O2145     Co2148   2.015       .  S
O2145      C2155   1.272       .  A
O2146     Co2151   2.002       .  S
O2146      C2153   1.272       .  A
O2147     Co2150   1.898       .  S
O2147      C2154   1.260       .  A
Co2148     O2152   2.018       .  S
Co2151     O2152   1.900       .  S
C2153      C2400   1.492       .  S
C2154      C2389   1.483       .  S
C2155      C5235   1.475       .  S
C2156      C2599   1.500       .  S
O2157     Co2177   2.103       .  S
O2157      C2165   1.294       .  A
O2158     Co2178   2.131       .  S
O2158      C2166   1.284       .  A
O2159     Co2179   1.997       .  S
O2159      C2167   1.277       .  A
O2160     Co2180   1.948       .  S
O2160      C2168   1.253       .  A
O2161     Co2178   1.988       .  S
O2161      C2167   1.265       .  A
O2162     Co2177   2.000       .  S
O2162      C2168   1.259       .  A
O2163     Co2180   1.924       .  S
O2163      C2166   1.236       .  A
O2164     Co2179   1.929       .  S
O2164      C2165   1.278       .  A
C2165      C2543   1.506       .  S
C2166      C2529   1.515       .  S
C2167      C2344   1.499       .  S
C2168      C2358   1.463       .  S
O2169     Co2177   1.967       .  S
O2169      C2182   1.271       .  A
O2170     Co2178   1.964       .  S
O2170      C2183   1.253       .  A
O2171     Co2179   2.120       .  S
O2171      C2184   1.294       .  A
O2172     Co2180   2.112       .  S
O2172      C2185   1.279       .  A
O2173     Co2178   1.945       .  S
O2173      C2185   1.239       .  A
O2174     Co2177   1.915       .  S
O2174      C2184   1.267       .  A
O2175     Co2180   1.998       .  S
O2175      C2182   1.274       .  A
O2176     Co2179   2.011       .  S
O2176      C2183   1.272       .  A
Co2177     O2181   2.004       .  S
Co2178     O2181   2.007       .  S
Co2179     O2181   2.032       .  S
Co2180     O2181   2.030       .  S
C2183      C2372   1.474       .  S
C2184      C2652   1.487       .  S
C2185      C2638   1.515       .  S
O2186     Co2206   2.038       .  S
O2186      C2194   1.283       .  A
O2187     Co2207   2.067       .  S
O2187      C2195   1.266       .  A
O2188     Co2208   2.006       .  S
O2188      C2196   1.276       .  A
O2189     Co2209   1.940       .  S
O2189      C2197   1.244       .  A
O2190     Co2207   2.036       .  S
O2190      C2196   1.276       .  A
O2191     Co2206   2.011       .  S
O2191      C2197   1.261       .  A
O2192     Co2209   1.944       .  S
O2192      C2195   1.239       .  A
O2193     Co2208   1.956       .  S
O2193      C2194   1.283       .  A
C2194      C2571   1.496       .  S
C2195      C2557   1.491       .  S
C2196      C2302   1.511       .  S
C2197      C2361   1.460       .  S
O2198     Co2206   1.962       .  S
O2198      C2211   1.267       .  A
O2199     Co4927   1.889       .  S
O2199      C2212   1.247       .  A
O2200     Co2208   2.034       .  S
O2200      C2213   1.286       .  A
O2201     Co2209   2.059       .  S
O2201      C2214   1.270       .  A
O2202     Co2207   1.954       .  S
O2202      C2214   1.243       .  A
O2203     Co2206   1.993       .  S
O2203      C2213   1.271       .  A
O2204     Co2209   2.040       .  S
O2204      C2211   1.281       .  A
O2205     Co4928   2.137       .  S
O2205      C2212   1.315       .  A
Co2206     O2210   2.130       .  S
Co2207     O4919   1.889       .  S
Co2207     O2210   2.063       .  S
Co2208     O4925   2.137       .  S
Co2208     O2210   1.935       .  S
Co2209     O2210   2.031       .  S
C2211      C2319   1.500       .  S
C2212      C2375   1.465   1_655  S
C2213      C2627   1.485       .  S
C2214      C2613   1.474       .  S
O2215     Co2235   2.100       .  S
O2215      C2223   1.288       .  A
O2216     Co2236   2.035       .  S
O2216      C2224   1.265       .  A
O2217     Co2237   2.013       .  S
O2217      C2225   1.266       .  A
O2218     Co4958   1.919       .  S
O2218      C2226   1.243       .  A
O2219     Co2236   1.980       .  S
O2219      C2225   1.259       .  A
O2220     Co4955   2.038       .  S
O2220      C2226   1.275       .  A
O2221     Co2238   1.957       .  S
O2221      C2224   1.242       .  A
O2222     Co2237   1.934       .  S
O2222      C2223   1.263       .  A
C2223      C2403   1.501       .  S
C2224      C2386   1.485       .  S
C2225      C2347   1.485       .  S
C2226      C2274   1.467       .  S
O2227     Co2235   1.994       .  S
O2227      C2240   1.274       .  A
O2228     Co2236   1.924       .  S
O2228      C2241   1.247       .  A
O2229     Co2237   2.138       .  S
O2229      C2242   1.315       .  A
O2230     Co2238   2.088       .  S
O2230      C2243   1.281       .  A
O2231     Co2236   1.942       .  S
O2231      C2243   1.243       .  A
O2232     Co2235   1.929       .  S
O2232      C2242   1.276       .  A
O2233     Co2238   2.025       .  S
O2233      C2240   1.274       .  A
O2234     Co2237   2.039       .  S
O2234      C2241   1.289       .  A
Co2235     O4940   2.038       .  S
Co2235     O2239   2.064       .  S
Co2236     O2239   2.047       .  S
Co2237     O2239   2.003       .  S
Co2238     O4938   1.919       .  S
Co2238     O2239   2.026       .  S
C2240      C2305   1.502       .  S
C2241      C2291   1.455       .  S
C2242      C2484   1.494       .  S
C2243      C2473   1.495       .  S
O2244     Co2264   1.946       .  S
O2244      C2252   1.244       .  A
O2245     Co2265   1.957       .  S
O2245      C2253   1.274       .  A
O2246     Co2266   2.029       .  S
O2246      C2254   1.279       .  A
O2247     Co2267   2.045       .  S
O2247      C2255   1.276       .  A
O2248     Co2265   1.957       .  S
O2248      C2254   1.268       .  A
O2249     Co2264   1.925       .  S
O2249      C2255   1.241       .  A
O2250     Co2267   2.066       .  S
O2250      C2253   1.276       .  A
O2251     Co2266   2.069       .  S
O2251      C2252   1.272       .  A
C2252      C2431   1.502       .  S
C2253      C2414   1.491       .  S
C2254      C2333   1.486       .  S
C2255      C2277   1.468       .  S
O2256     Co2264   2.023       .  S
O2256      C2269   1.282       .  A
O2257     Co2265   2.048       .  S
O2257      C2270   1.268       .  A
O2258     Co2266   1.949       .  S
O2258      C2271   1.251       .  A
O2259     Co2267   1.974       .  S
O2259      C2272   1.284       .  A
O2260     Co2265   2.065       .  S
O2260      C2272   1.284       .  A
O2261     Co2264   2.068       .  S
O2261      C2271   1.282       .  A
O2262     Co2267   1.972       .  S
O2262      C2269   1.275       .  A
O2263     Co2266   1.923       .  S
O2263      C2270   1.241       .  A
Co2264     O2268   1.968       .  S
Co2265     O2268   2.031       .  S
Co2266     O2268   2.011       .  S
Co2267     O2268   2.040       .  S
C2269      C2316   1.500       .  S
C2270      C2288   1.480       .  S
C2271      C2456   1.491       .  S
C2272      C2445   1.525       .  S
C2273      C2274   1.392       .  A
C2273      C2278   1.399       .  A
C2273      H2280   1.084       .  S
C2274      C2275   1.426       .  A
C2275      C2276   1.398       .  A
C2275      N2282   1.444       .  S
C2276      C2277   1.393       .  A
C2276      H2281   1.084       .  S
C2277      C2278   1.428       .  A
C2278      N2279   1.440       .  S
N2279      O2283   1.263       .  A
N2279      O2284   1.261       .  A
N2282      O2285   1.262       .  A
N2282      O2286   1.262       .  A
C2287      C2288   1.402       .  A
C2287      C2292   1.411       .  A
C2287      H2294   1.083       .  S
C2288      C2289   1.422       .  A
C2289      C2290   1.390       .  A
C2289      N2296   1.433       .  S
C2290      C2291   1.383       .  A
C2290      H2295   1.084       .  S
C2291      C2292   1.419       .  A
C2292      N2293   1.442       .  S
N2293      O2297   1.263       .  A
N2293      O2298   1.262       .  A
N2296      O2299   1.264       .  A
N2296      O2300   1.259       .  A
C2301      C2302   1.407       .  A
C2301      C5026   1.409       .  A
C2301      H2308   1.084       .  S
C2302      C5023   1.423       .  A
C2303      C5022   1.423   1_455  A
C2303      C2304   1.417       .  A
C2303      N2310   1.433       .  S
C2304      H2309   1.084       .  S
C2306      C5021   1.409   1_455  A
C2306      N3667   1.428       .  S
N2307      C3666   1.428       .  S
N2307      O2311   1.262       .  A
N2307      O5032   1.261       .  A
N2310      O5033   1.261   1_455  A
N2310      O2314   1.263       .  A
O2312      N5027   1.261       .  A
O2313      N5030   1.261       .  A
C2315      C2316   1.410       .  A
C2315      C2320   1.403       .  A
C2315      H2322   1.083       .  S
C2316      C2317   1.417       .  A
C2317      C2318   1.410       .  A
C2317      N2324   1.435       .  S
C2318      C2319   1.410       .  A
C2318      H2323   1.083       .  S
C2319      C2320   1.418       .  A
C2320      N2321   1.437       .  S
N2321      O2325   1.263       .  A
N2321      O2326   1.263       .  A
N2324      O2327   1.263       .  A
N2324      O2328   1.262       .  A
C2329      C2330   1.406       .  A
C2329      C2334   1.404   1_545  A
C2329      H2336   1.083       .  S
C2330      C2331   1.417       .  A
C2331      C2332   1.399   1_545  A
C2332      C2333   1.406       .  A
C2332      H2337   1.083       .  S
C2333      C2334   1.418       .  A
C2334      N2335   1.438       .  S
N2335      O2339   1.262       .  A
N2335      O2340   1.262       .  A
N2338      O2341   1.263       .  A
N2338      O2342   1.263       .  A
C2343      C2344   1.404       .  A
C2343      C2348   1.408       .  A
C2343      H2350   1.083       .  S
C2344      C2345   1.431       .  A
C2345      C2346   1.401       .  A
C2345      N2352   1.434       .  S
C2346      C2347   1.394       .  A
C2346      H2351   1.085       .  S
C2347      C2348   1.409       .  A
C2348      N2349   1.424       .  S
N2349      O2353   1.260       .  A
N2349      O2354   1.262       .  A
N2352      O2355   1.263       .  A
N2352      O2356   1.262       .  A
C2357      C2358   1.405       .  A
C2357      C2362   1.388       .  A
C2357      H2364   1.085       .  S
C2358      C2359   1.408       .  A
C2359      C2360   1.400       .  A
C2359      N2366   1.437       .  S
C2360      C2361   1.407       .  A
C2360      H2365   1.084       .  S
C2361      C2362   1.404       .  A
C2362      N2363   1.431       .  S
N2363      O2367   1.262       .  A
N2363      O2368   1.260       .  A
N2366      O2369   1.262       .  A
N2366      O2370   1.263       .  A
C2371      C2372   1.398       .  A
C2371      C2376   1.396       .  A
C2371      H2378   1.084       .  S
C2372      C2373   1.423       .  A
C2373      C2374   1.396       .  A
C2373      N2380   1.435       .  S
C2374      C2375   1.394       .  A
C2374      H2379   1.085       .  S
C2375      C2376   1.422       .  A
C2376      N2377   1.440       .  S
N2377      O2381   1.263       .  A
N2377      O2382   1.261       .  A
N2380      O2383   1.262       .  A
N2380      O2384   1.262       .  A
C2385      C2386   1.396       .  A
C2385      C2390   1.399       .  A
C2385      H2392   1.084       .  S
C2386      C5107   1.419       .  A
C2387      C5106   1.419       .  A
C2387      C2388   1.413       .  A
C2387      N2394   1.442       .  S
C2388      C2389   1.403       .  A
C2388      H2393   1.084       .  S
C2389      C5110   1.428       .  A
C2390      C5109   1.428   1_455  A
C2390      N2391   1.443       .  S
N2391      O2395   1.262       .  A
N2391      O5116   1.260       .  A
N2394      O2397   1.263       .  A
N2394      O2398   1.263       .  A
O2396      N5111   1.260       .  A
C2399      C5120   1.404   1_455  A
C2399      C2404   1.419       .  A
C2399      H2406   1.078       .  S
C2400      C5119   1.404       .  A
C2400      C2401   1.411       .  A
C2401      C2402   1.406       .  A
C2401      N2408   1.442       .  S
C2402      C5123   1.407       .  A
C2402      H2407   1.079       .  S
C2403      C5122   1.407   1_455  A
C2403      C2404   1.430       .  A
C2404      N2405   1.448       .  S
N2405      O2409   1.263       .  A
N2405      O2410   1.260       .  A
N2408      O2411   1.262       .  A
N2408      O2412   1.263       .  A
C2413      C2414   1.394       .  A
C2413      C2418   1.405       .  A
C2413      H2420   1.080       .  S
C2414      C2415   1.421       .  A
C2415      C2416   1.423       .  A
C2415      N2422   1.441       .  S
C2416      C2417   1.408       .  A
C2416      H2421   1.083       .  S
C2417      C2418   1.425       .  A
C2418      N2419   1.437       .  S
N2419      O2423   1.261       .  A
N2419      O2424   1.261       .  A
N2422      O2425   1.263       .  A
N2422      O2426   1.263       .  A
C2427      C2428   1.408       .  A
C2427      C2432   1.420       .  A
C2427      H2434   1.083       .  S
C2428      C2429   1.406       .  A
C2429      C2430   1.397       .  A
C2429      N2436   1.443       .  S
C2430      C2431   1.415       .  A
C2430      H2435   1.083       .  S
C2431      C2432   1.421       .  A
C2432      N2433   1.445       .  S
N2433      O2437   1.261       .  A
N2433      O2438   1.263       .  A
N2436      O2439   1.263       .  A
N2436      O2440   1.262       .  A
C2441      C2442   1.396       .  A
C2441      C2446   1.395       .  A
C2441      H2448   1.084       .  S
C2442      C2443   1.440       .  A
C2443      C2444   1.438       .  A
C2443      N2450   1.447       .  S
C2444      C2445   1.411       .  A
C2444      H2449   1.082       .  S
C2445      C2446   1.423       .  A
C2446      N2447   1.427       .  S
N2447      O2451   1.261       .  A
N2447      O2452   1.262       .  A
N2450      O2453   1.260       .  A
N2450      O2454   1.263       .  A
C2455      C2456   1.397       .  A
C2455      C2460   1.404       .  A
C2455      H2462   1.083       .  S
C2456      C2457   1.424       .  A
C2457      C2458   1.419       .  A
C2457      N2464   1.444       .  S
C2458      C2459   1.403       .  A
C2458      H2463   1.083       .  S
C2459      C2460   1.411       .  A
C2460      N2461   1.426       .  S
N2461      O2465   1.261       .  A
N2461      O2466   1.260       .  A
N2464      O2467   1.263       .  A
N2464      O2468   1.263       .  A
C2469      C2470   1.390       .  A
C2469      C2474   1.384       .  A
C2469      H2476   1.084       .  S
C2470      C2471   1.420       .  A
C2471      C2472   1.421       .  A
C2471      N2478   1.432       .  S
C2472      C2473   1.406       .  A
C2472      H2477   1.083       .  S
C2473      C2474   1.424       .  A
C2474      N2475   1.429       .  S
N2475      O2479   1.262       .  A
N2475      O2480   1.262       .  A
N2478      O2481   1.262       .  A
N2478      O2482   1.263       .  A
C2483      C2484   1.410       .  A
C2483      C2488   1.412       .  A
C2483      H2490   1.078       .  S
C2484      C2485   1.411       .  A
C2485      C2486   1.412       .  A
C2485      N2492   1.439       .  S
C2486      C2487   1.406       .  A
C2486      H2491   1.076       .  S
C2487      C2488   1.407       .  A
C2488      N2489   1.442       .  S
N2489      O2493   1.261       .  A
N2489      O2494   1.263       .  A
N2492      O2495   1.262       .  A
N2492      O2496   1.261       .  A
C2497      C2502   1.399       .  A
C2497      H2504   1.084       .  S
C2498      C2499   1.411       .  A
C2499      C2500   1.392       .  A
C2499      N2506   1.433       .  S
C2500      H2505   1.080       .  S
C2501      C2502   1.407       .  A
C2502      N2503   1.432       .  S
N2503      O2507   1.262       .  A
N2503      O2508   1.262       .  A
N2506      O2509   1.261       .  A
N2506      O2510   1.262       .  A
C2511      C2512   1.400   1_556  A
C2511      C2516   1.393       .  A
C2511      H2518   1.084       .  S
C2513      C2514   1.405       .  A
C2513      N2520   1.446       .  S
C2514      C2515   1.401       .  A
C2514      H2519   1.084       .  S
C2515      C4875   1.475       .  S
C2516      N2517   1.437       .  S
N2517      O2521   1.263       .  A
N2517      O4562   1.259   1_556  A
N2520      O2524   1.263       .  A
O2522      N4557   1.259       .  A
C2525      C2526   1.397       .  A
C2525      C2530   1.406       .  A
C2525      H2532   1.084       .  S
C2526      C2527   1.422       .  A
C2527      C2528   1.425       .  A
C2527      N2534   1.434       .  S
C2528      C2529   1.404       .  A
C2528      H2533   1.083       .  S
C2529      C2530   1.431       .  A
C2530      N2531   1.439       .  S
N2531      O2535   1.263       .  A
N2531      O2536   1.263       .  A
N2534      O2537   1.263       .  A
N2534      O2538   1.262       .  A
C2539      C2540   1.412       .  A
C2539      C2544   1.419       .  A
C2539      H2546   1.076       .  S
C2540      C2541   1.405       .  A
C2541      C2542   1.404       .  A
C2541      N2548   1.430       .  S
C2542      C2543   1.407       .  A
C2542      H2547   1.074       .  S
C2543      C2544   1.413       .  A
C2544      N2545   1.430       .  S
N2545      O2549   1.262       .  A
N2545      O2550   1.262       .  A
N2548      O2551   1.261       .  A
N2548      O2552   1.262       .  A
C2553      C2554   1.405       .  A
C2553      C2558   1.412       .  A
C2553      H2560   1.083       .  S
C2554      C2555   1.406       .  A
C2555      C2556   1.395       .  A
C2555      N2562   1.442       .  S
C2556      C2557   1.413       .  A
C2556      H2561   1.083       .  S
C2557      C2558   1.417       .  A
C2558      N2559   1.441       .  S
N2559      O2563   1.262       .  A
N2559      O2564   1.261       .  A
N2562      O2565   1.263       .  A
N2562      O2566   1.262       .  A
C2567      C2568   1.389       .  A
C2567      C2572   1.376       .  A
C2567      H2574   1.083       .  S
C2568      C2569   1.421       .  A
C2569      C2570   1.424       .  A
C2569      N2576   1.439       .  S
C2570      C2571   1.411       .  A
C2570      H2575   1.083       .  S
C2571      C2572   1.424       .  A
C2572      N2573   1.433       .  S
N2573      O2577   1.261       .  A
N2573      O2578   1.260       .  A
N2576      O2579   1.263       .  A
N2576      O2580   1.263       .  A
C2581      C2586   1.402   1_545  A
C2581      H2588   1.084       .  S
C2583      N2590   1.440       .  S
C2584      C2585   1.405   1_556  A
C2586      N2587   1.430       .  S
N2587      O2591   1.260       .  A
N2587      O2592   1.262   1_565  A
N2590      O2593   1.262       .  A
N2590      O2594   1.262       .  A
C2595      C2600   1.415       .  A
C2595      H2602   1.083       .  S
C2596      C2597   1.417       .  A
C2597      C2598   1.397       .  A
C2597      N2604   1.431       .  S
C2598      C2599   1.406       .  A
C2598      H2603   1.083       .  S
C2600      N2601   1.437       .  S
N2601      O2605   1.263       .  A
N2604      O2608   1.262       .  A
C2609      C5330   1.412       .  A
C2609      C2614   1.418       .  A
C2609      H2616   1.083       .  S
C2610      C5329   1.412   1_455  A
C2610      C2611   1.406       .  A
C2611      C2612   1.378   1_455  A
C2611      N2618   1.435       .  S
C2612      C5333   1.403       .  A
C2612      H2617   1.082       .  S
C2613      C5332   1.403       .  A
C2613      C2614   1.416       .  A
C2614      N2615   1.445       .  S
N2615      O2619   1.263       .  A
N2615      O2620   1.262       .  A
N2618      O2621   1.262       .  A
N2618      O2622   1.262       .  A
C2623      C5344   1.406       .  A
C2623      C2628   1.418       .  A
C2623      H2630   1.083       .  S
C2624      C5343   1.406       .  A
C2624      C2625   1.388       .  A
C2625      C2626   1.373       .  A
C2625      N2632   1.435       .  S
C2626      C5347   1.406   1_455  A
C2626      H2631   1.076       .  S
C2627      C5346   1.406       .  A
C2627      C2628   1.423       .  A
C2628      N2629   1.440       .  S
N2629      O2633   1.263       .  A
N2629      O2634   1.260       .  A
N2632      O2635   1.262       .  A
N2632      O2636   1.262       .  A
C2637      C2638   1.413       .  A
C2637      C2642   1.440       .  A
C2637      H2644   1.083       .  S
C2638      C2639   1.416       .  A
C2639      C2640   1.384       .  A
C2639      N2646   1.427       .  S
C2640      C2641   1.400       .  A
C2640      H2645   1.083       .  S
C2641      C2642   1.441       .  A
C2642      N2643   1.446       .  S
N2643      O2647   1.263       .  A
N2643      O2648   1.260       .  A
N2646      O2649   1.261       .  A
N2646      O2650   1.262       .  A
C2651      C2652   1.400       .  A
C2651      C2656   1.408       .  A
C2651      H2658   1.084       .  S
C2652      C2653   1.419       .  A
C2653      C2654   1.418       .  A
C2653      N2660   1.443       .  S
C2654      C2655   1.403       .  A
C2654      H2659   1.083       .  S
C2655      C2656   1.414       .  A
C2656      N2657   1.435       .  S
N2657      O2661   1.263       .  A
N2657      O2662   1.261       .  A
N2660      O2663   1.263       .  A
N2660      O2664   1.262       .  A
C2665      C5390   1.402   1_445  A
C2665      H2672   1.083       .  S
C2666      C5387   1.420   1_455  A
C2667      C5386   1.420       .  A
C2667      C2668   1.413       .  A
C2667      N2674   1.436       .  S
C2668      H2673   1.083       .  S
C2670      C5385   1.402   1_565  A
C2670      N2671   1.438       .  S
N2671      O5395   1.263       .  A
N2674      O2678   1.262       .  A
O2675      N5391   1.263   1_455  A
C2679      C2680   1.397   1_556  A
C2679      C2684   1.396       .  A
C2679      H2686   1.082       .  S
C2681      C2682   1.411       .  A
C2681      N2688   1.441       .  S
C2682      H2687   1.079       .  S
C2683      C2684   1.415   1_554  A
C2684      N2685   1.435       .  S
N2685      O2689   1.260       .  A
N2685      O2690   1.261       .  A
N2688      O2691   1.261       .  A
N2688      O2692   1.263       .  A
C2693      C2698   1.382       .  A
C2693      H2700   1.064       .  S
C2694      C2695   1.403       .  A
C2695      C2696   1.385       .  A
C2695      N2702   1.432       .  S
C2696      C2697   1.402       .  A
C2696      H2701   1.079       .  S
C2698      N2699   1.427       .  S
N2699      O2704   1.262       .  A
N2702      O2705   1.259       .  A
C2707      C2712   1.414       .  A
C2707      H2714   1.082       .  S
C2708      C2709   1.410   1_554  A
C2709      C2710   1.400       .  A
C2709      N2716   1.437       .  S
C2710      C2711   1.407   1_556  A
C2710      H2715   1.076       .  S
C2712      N2713   1.444       .  S
N2713      O2717   1.263       .  A
N2716      O2720   1.262       .  A
O2721     Co2741   2.015       .  S
O2721      C3409   1.275       .  A
O2722     Co2742   2.028       .  S
O2723     Co2743   1.987       .  S
O2723      C2731   1.273       .  A
O2724     Co2744   1.883       .  S
O2724      C2732   1.278       .  A
O2725     Co2742   1.989       .  S
O2725      C2731   1.276       .  A
O2726     Co2741   2.062       .  S
O2726      C2732   1.292       .  A
O2727     Co2744   1.983       .  S
O2728     Co2743   1.981       .  S
O2728      C2729   1.271       .  A
C2729      O3401   1.275       .  A
C2729      C3391   1.484       .  S
C2730      C3360   1.481       .  S
C2731      C3290   1.471       .  S
C2732      C3304   1.460       .  S
O2733     Co2741   1.900       .  S
O2733      C2746   1.269       .  A
O2734     Co2742   2.023       .  S
O2734      C2747   1.276       .  A
O2735     Co2743   1.982       .  S
O2735      C3428   1.257       .  A
O2736     Co2744   2.156       .  S
O2736      C2749   1.319   1_554  A
O2737     Co2742   1.852       .  S
O2737      C3429   1.277       .  A
O2738     Co2741   1.954       .  S
O2738      C2748   1.250   1_554  A
O2739     Co2744   2.115       .  S
O2739      C2746   1.307       .  A
O2740     Co2743   2.000       .  S
O2740      C2747   1.278       .  A
Co2741     O2745   1.945   1_554  S
Co2742     O3425   1.880       .  S
Co2743     O3425   2.011       .  S
Co2744     O2745   2.033   1_554  S
O2745     Co3422   1.880       .  S
O2745     Co3423   2.011       .  S
C2746      C3335   1.494       .  S
C2747      C3321   1.526       .  S
C2748      O3415   1.257       .  A
C2748      C3374   1.432       .  S
C2749      O3417   1.277       .  A
C2749      C3346   1.504       .  S
O2750     Co2770   1.986       .  S
O2750      C2758   1.269       .  A
O2751     Co2771   1.957       .  S
O2751      C3439   1.244       .  A
O2752     Co2772   1.973       .  S
O2752      C2760   1.272       .  A
O2753     Co2773   2.057       .  S
O2753      C2761   1.299       .  A
O2754     Co2771   2.013       .  S
O2754      C2760   1.283       .  A
O2755     Co2770   1.964       .  S
O2755      C2761   1.259       .  A
O2756     Co2773   2.066       .  S
O2756      C2759   1.280       .  A
O2757     Co2772   1.984       .  S
O2757      C3438   1.271       .  A
C2758      O3437   1.271   1_554  A
C2758      C3262   1.479       .  S
C2759      O3431   1.244   1_554  A
C2759      C4043   1.484       .  S
C2760      C3234   1.466       .  S
C2761      C3248   1.485       .  S
O2762     Co2770   1.889       .  S
O2762      C2775   1.266       .  A
O2763     Co2771   2.025       .  S
O2763      C2776   1.271       .  A
O2764     Co2772   1.972       .  S
O2764      C3457   1.260       .  A
O2765     Co2773   1.981       .  S
O2765      C3458   1.291   1_554  A
O2766     Co2771   1.986       .  S
O2766      C2778   1.294       .  A
O2767     Co2770   1.944       .  S
O2767      C2777   1.256   1_554  A
O2768     Co2773   2.146       .  S
O2768      C2775   1.310       .  A
O2769     Co2772   2.010       .  S
O2769      C2776   1.268       .  A
Co2770     O2774   1.891   1_554  S
Co2771     O3454   1.999       .  S
Co2772     O3454   2.023       .  S
Co2773     O2774   2.044   1_554  S
O2774     Co3451   1.999       .  S
O2774     Co3452   2.023       .  S
C2775      C3220   1.500       .  S
C2776      C3206   1.505       .  S
C2777      O3444   1.260       .  A
C2777      C3377   1.452       .  S
C2778      O3445   1.291       .  A
C2778      C3956   1.497       .  S
O2779     Co2799   1.988       .  S
O2779      C3467   1.270       .  A
O2780     Co2800   1.994       .  S
O2780      C2788   1.266       .  A
O2781     Co2801   1.997       .  S
O2781      C2789   1.282       .  A
O2782     Co2802   2.003       .  S
O2782      C2790   1.270       .  A
O2783     Co2800   2.133       .  S
O2783      C2789   1.320       .  A
O2784     Co2799   2.007       .  S
O2784      C2790   1.267       .  A
O2785     Co2802   1.992       .  S
O2785      C3468   1.253   1_554  A
O2786     Co2801   1.988       .  S
O2786      C2787   1.276       .  A
C2787      O3459   1.270       .  A
C2787      C3388   1.496       .  S
C2788      O3465   1.253       .  A
C2788      C3181   1.457       .  S
C2789      C3122   1.518       .  S
C2790      C3139   1.500       .  S
O2791     Co2799   1.875       .  S
O2791      C2804   1.273       .  A
O2792     Co2800   1.992       .  S
O2792      C2805   1.258       .  A
O2793     Co2801   1.997       .  S
O2793      C2806   1.268       .  A
O2794     Co2802   1.972       .  S
O2794      C3487   1.289       .  A
O2795     Co2800   1.985       .  S
O2795      C2807   1.291       .  A
O2796     Co2799   1.986       .  S
O2796      C3486   1.256       .  A
O2797     Co2802   2.133       .  S
O2797      C2804   1.314       .  A
O2798     Co2801   1.985       .  S
O2798      C2805   1.264       .  A
Co2799     O3483   1.873       .  S
Co2800     O2803   1.983       .  S
Co2801     O2803   2.050       .  S
Co2802     O3483   2.075       .  S
O2803     Co3479   1.873       .  S
O2803     Co3482   2.075       .  S
C2804      C3167   1.483       .  S
C2805      C3150   1.485       .  S
C2806      O3476   1.256       .  A
C2806      C3192   1.474       .  S
C2807      O3474   1.289       .  A
C2807      C3265   1.487       .  S
O2808     Co2828   1.979       .  S
O2808      C3496   1.267   1_554  A
O2809     Co2829   1.972       .  S
O2809      C3497   1.240       .  A
O2810     Co2830   2.111       .  S
O2810      C2818   1.306       .  A
O2811     Co2831   2.025       .  S
O2811      C2819   1.286       .  A
O2812     Co2829   1.919       .  S
O2812      C2818   1.273       .  A
O2813     Co2828   1.987       .  S
O2813      C2819   1.276       .  A
O2814     Co2831   2.002       .  S
O2814      C2817   1.249   1_554  A
O2815     Co2830   1.995       .  S
O2815      C2816   1.268       .  A
C2816      O3488   1.267       .  A
C2816      C4029   1.495       .  S
C2817      O3489   1.240       .  A
C2817      C3178   1.455       .  S
C2818      C3097   1.506       .  S
C2819      C3108   1.478       .  S
O2820     Co2828   2.008       .  S
O2820      C2833   1.269       .  A
O2821     Co2829   2.113       .  S
O2821      C2834   1.303       .  A
O2822     Co2830   1.986       .  S
O2822      C3515   1.257   1_655  A
O2823     Co2831   1.871       .  S
O2823      C2836   1.286   1_554  A
O2824     Co2829   2.137       .  S
O2824      C3516   1.316       .  A
O2825     Co2828   2.015       .  S
O2825      C2835   1.272   1_655  A
O2826     Co2831   2.002       .  S
O2826      C2833   1.272       .  A
O2827     Co2830   1.898       .  S
O2827      C2834   1.260       .  A
Co2828     O2832   2.018       .  S
Co2829     O3512   2.032       .  S
Co2830     O3512   1.973       .  S
Co2831     O2832   1.900       .  S
O2832     Co3509   2.032   1_554  S
O2832     Co3510   1.973   1_554  S
C2833      C3080   1.492       .  S
C2834      C3069   1.483       .  S
C2835      O3502   1.257   1_454  A
C2836      O3504   1.316       .  A
C2836      C3279   1.500       .  S
O2837     Co2857   2.103       .  S
O2837      C2845   1.294       .  A
O2838     Co2858   2.131       .  S
O2838      C2846   1.284       .  A
O2839     Co2859   1.997       .  S
O2839      C2847   1.277       .  A
O2840     Co2860   1.948       .  S
O2840      C2848   1.253       .  A
O2841     Co2858   1.988       .  S
O2841      C2847   1.265       .  A
O2842     Co2857   2.000       .  S
O2842      C2848   1.259       .  A
O2843     Co2860   1.924       .  S
O2843      C2846   1.236       .  A
O2844     Co2859   1.929       .  S
O2844      C2845   1.278       .  A
C2845      C3223   1.506       .  S
C2846      C3209   1.515       .  S
C2847      C3024   1.499       .  S
C2848      C3038   1.463       .  S
O2849     Co2857   1.967       .  S
O2849      C2862   1.271       .  A
O2850     Co2858   1.964       .  S
O2850      C2863   1.253       .  A
O2851     Co2859   2.120       .  S
O2851      C2864   1.294       .  A
O2852     Co2860   2.112       .  S
O2852      C2865   1.279       .  A
O2853     Co2858   1.945       .  S
O2853      C2865   1.239       .  A
O2854     Co2857   1.915       .  S
O2854      C2864   1.267       .  A
O2855     Co2860   1.998       .  S
O2855      C2862   1.274       .  A
O2856     Co2859   2.011       .  S
O2856      C2863   1.272       .  A
Co2857     O2861   2.004       .  S
Co2858     O2861   2.007       .  S
Co2859     O2861   2.032       .  S
Co2860     O2861   2.030       .  S
C2862      C4370   1.484       .  S
C2863      C3052   1.474       .  S
C2864      C3332   1.487       .  S
C2865      C3318   1.515       .  S
O2866     Co2886   2.038       .  S
O2866      C2874   1.283       .  A
O2867     Co2887   2.067       .  S
O2867      C2875   1.266       .  A
O2868     Co2888   2.006       .  S
O2868      C2876   1.276       .  A
O2869     Co2889   1.940       .  S
O2869      C2877   1.244       .  A
O2870     Co2887   2.036       .  S
O2870      C2876   1.276       .  A
O2871     Co2886   2.011       .  S
O2871      C2877   1.261       .  A
O2872     Co2889   1.944       .  S
O2872      C2875   1.239       .  A
O2873     Co2888   1.956       .  S
O2873      C2874   1.283       .  A
C2874      C3251   1.496       .  S
C2875      C3237   1.491       .  S
C2876      C2982   1.511       .  S
C2877      C3041   1.460       .  S
O2878     Co2886   1.962       .  S
O2878      C2891   1.267       .  A
O2879      C2892   1.247       .  A
O2880     Co2888   2.034       .  S
O2880      C2893   1.286       .  A
O2881     Co2889   2.059       .  S
O2881      C2894   1.270       .  A
O2882     Co2887   1.954       .  S
O2882      C2894   1.243       .  A
O2883     Co2886   1.993       .  S
O2883      C2893   1.271       .  A
O2884     Co2889   2.040       .  S
O2884      C2891   1.281       .  A
O2885      C2892   1.315       .  A
Co2886     O2890   2.130       .  S
Co2887     O2890   2.063       .  S
Co2888     O2890   1.935       .  S
Co2889     O2890   2.031       .  S
C2891      C2999   1.500       .  S
C2892      C3055   1.465       .  S
C2893      C3307   1.485       .  S
C2894      C3293   1.474       .  S
O2895     Co2915   2.100       .  S
O2895      C2903   1.288       .  A
O2896     Co2916   2.035       .  S
O2896      C2904   1.265       .  A
O2897     Co2917   2.013       .  S
O2897      C2905   1.266       .  A
O2898      C2906   1.243   1_455  A
O2899     Co2916   1.980       .  S
O2899      C2905   1.259       .  A
O2900      C2906   1.275   1_455  A
O2901     Co2918   1.957       .  S
O2901      C2904   1.242       .  A
O2902     Co2917   1.934       .  S
O2902      C2903   1.263       .  A
C2903      C3083   1.501       .  S
C2904      C3066   1.485       .  S
C2905      C3027   1.485       .  S
C2906      C2954   1.467       .  S
O2907     Co2915   1.994       .  S
O2907      C2920   1.274       .  A
O2908     Co2916   1.924       .  S
O2908      C2921   1.247       .  A
O2909     Co2917   2.138       .  S
O2909      C2922   1.315       .  A
O2910     Co2918   2.088       .  S
O2910      C2923   1.281       .  A
O2911     Co2916   1.942       .  S
O2911      C2923   1.243       .  A
O2912     Co2915   1.929       .  S
O2912      C2922   1.276       .  A
O2913     Co2918   2.025       .  S
O2913      C2920   1.274       .  A
O2914     Co2917   2.039       .  S
O2914      C2921   1.289       .  A
Co2915     O2919   2.064       .  S
Co2916     O2919   2.047       .  S
Co2917     O2919   2.003       .  S
Co2918     O2919   2.026       .  S
C2920      C2985   1.502       .  S
C2921      C2971   1.455       .  S
C2922      C3164   1.494       .  S
C2923      C3153   1.495       .  S
O2924     Co2944   1.946       .  S
O2924      C2932   1.244       .  A
O2925     Co2945   1.957       .  S
O2925      C2933   1.274       .  A
O2926     Co2946   2.029       .  S
O2926      C2934   1.279       .  A
O2927     Co2947   2.045       .  S
O2927      C2935   1.276       .  A
O2928     Co2945   1.957       .  S
O2928      C2934   1.268       .  A
O2929     Co2944   1.925       .  S
O2929      C2935   1.241       .  A
O2930     Co2947   2.066       .  S
O2930      C2933   1.276       .  A
O2931     Co2946   2.069       .  S
O2931      C2932   1.272       .  A
C2932      C3111   1.502       .  S
C2933      C3094   1.491       .  S
C2934      C3013   1.486       .  S
C2935      C2957   1.468       .  S
O2936     Co2944   2.023       .  S
O2936      C2949   1.282       .  A
O2937     Co2945   2.048       .  S
O2937      C2950   1.268       .  A
O2938     Co2946   1.949       .  S
O2938      C2951   1.251       .  A
O2939     Co2947   1.974       .  S
O2939      C2952   1.284       .  A
O2940     Co2945   2.065       .  S
O2940      C2952   1.284       .  A
O2941     Co2944   2.068       .  S
O2941      C2951   1.282       .  A
O2942     Co2947   1.972       .  S
O2942      C2949   1.275       .  A
O2943     Co2946   1.923       .  S
O2943      C2950   1.241       .  A
Co2944     O2948   1.968       .  S
Co2945     O2948   2.031       .  S
Co2946     O2948   2.011       .  S
Co2947     O2948   2.040       .  S
C2949      C2996   1.500       .  S
C2950      C2968   1.480       .  S
C2951      C3136   1.491       .  S
C2952      C3125   1.525       .  S
C2953      C2954   1.392       .  A
C2953      C2958   1.399       .  A
C2953      H2960   1.084       .  S
C2954      C2955   1.426       .  A
C2955      C2956   1.398       .  A
C2955      N2962   1.444       .  S
C2956      C2957   1.393       .  A
C2956      H2961   1.084       .  S
C2957      C2958   1.428       .  A
C2958      N2959   1.440       .  S
N2959      O2963   1.263       .  A
N2959      O2964   1.261       .  A
N2962      O2965   1.262       .  A
N2962      O2966   1.262       .  A
C2967      C2968   1.402       .  A
C2967      C2972   1.411       .  A
C2967      H2974   1.083       .  S
C2968      C2969   1.422       .  A
C2969      C2970   1.390       .  A
C2969      N2976   1.433       .  S
C2970      C2971   1.383       .  A
C2970      H2975   1.084       .  S
C2971      C2972   1.419       .  A
C2972      N2973   1.442       .  S
N2973      O2977   1.263       .  A
N2973      O2978   1.262       .  A
N2976      O2979   1.264       .  A
N2976      O2980   1.259       .  A
C2981      C2982   1.407       .  A
C2981      H2988   1.084       .  S
C2983      C2984   1.417   1_545  A
C2983      N2990   1.433       .  S
C2984      C4345   1.405       .  A
C2984      H2989   1.084       .  S
C2985      C4344   1.405       .  A
C2985      C4346   1.414       .  A
C2986      C4345   1.414       .  A
N2987      O2991   1.262   1_455  A
N2990      O2994   1.263       .  A
C2995      C2996   1.410       .  A
C2995      C3000   1.403       .  A
C2995      H3002   1.083       .  S
C2996      C2997   1.417       .  A
C2997      C2998   1.410       .  A
C2997      N3004   1.435       .  S
C2998      C2999   1.410       .  A
C2998      H3003   1.083       .  S
C2999      C3000   1.418       .  A
C3000      N3001   1.437       .  S
N3001      O3005   1.263       .  A
N3001      O3006   1.263       .  A
N3004      O3007   1.263       .  A
N3004      O3008   1.262       .  A
C3009      C3010   1.406       .  A
C3009      C3014   1.404       .  A
C3009      H3016   1.083       .  S
C3010      C4222   1.484       .  S
C3010      C3011   1.417       .  A
C3011      C3012   1.399       .  A
C3011      N4378   1.438       .  S
C3012      C3013   1.406       .  A
C3012      H3017   1.083       .  S
C3013      C3014   1.418       .  A
C3014      N3015   1.438       .  S
N3015      O3019   1.262       .  A
N3015      O3020   1.262       .  A
N3018      C4371   1.438       .  S
N3018      O3021   1.263       .  A
N3018      O3022   1.263       .  A
C3023      C3024   1.404       .  A
C3023      C3028   1.408       .  A
C3023      H3030   1.083       .  S
C3024      C3025   1.431       .  A
C3025      C3026   1.401       .  A
C3025      N3032   1.434       .  S
C3026      C3027   1.394       .  A
C3026      H3031   1.085       .  S
C3027      C3028   1.409       .  A
C3028      N3029   1.424       .  S
N3029      O3033   1.260       .  A
N3029      O3034   1.262       .  A
N3032      O3035   1.263       .  A
N3032      O3036   1.262       .  A
C3037      C3038   1.405       .  A
C3037      C3042   1.388       .  A
C3037      H3044   1.085       .  S
C3038      C3039   1.408       .  A
C3039      C3040   1.400       .  A
C3039      N3046   1.437       .  S
C3040      C3041   1.407       .  A
C3040      H3045   1.084       .  S
C3041      C3042   1.404       .  A
C3042      N3043   1.431       .  S
N3043      O3047   1.262       .  A
N3043      O3048   1.260       .  A
N3046      O3049   1.262       .  A
N3046      O3050   1.263       .  A
C3051      C3052   1.398       .  A
C3051      C3056   1.396       .  A
C3051      H3058   1.084       .  S
C3052      C3053   1.423       .  A
C3053      C3054   1.396       .  A
C3053      N3060   1.435       .  S
C3054      C3055   1.394       .  A
C3054      H3059   1.085       .  S
C3055      C3056   1.422       .  A
C3056      N3057   1.440       .  S
N3057      O3061   1.263       .  A
N3057      O3062   1.261       .  A
N3060      O3063   1.262       .  A
N3060      O3064   1.262       .  A
C3065      C3066   1.396       .  A
C3065      C3070   1.399       .  A
C3065      H3072   1.084       .  S
C3067      C3068   1.413   1_455  A
C3067      N3074   1.442   1_455  S
C3068      C3069   1.403       .  A
C3068      H3073   1.084       .  S
C3070      N3071   1.443       .  S
N3071      O3075   1.262       .  A
N3074      O3077   1.263   1_655  A
N3074      O3078   1.263       .  A
C3079      C3084   1.419       .  A
C3079      H3086   1.078       .  S
C3080      C3081   1.411       .  A
C3081      C3082   1.406       .  A
C3081      N3088   1.442       .  S
C3082      H3087   1.079       .  S
C3083      C3084   1.430       .  A
C3084      N3085   1.448       .  S
N3085      O3089   1.263       .  A
N3085      O3090   1.260       .  A
N3088      O3091   1.262       .  A
N3088      O3092   1.263       .  A
C3093      C3094   1.394       .  A
C3093      C3098   1.405       .  A
C3093      H3100   1.080       .  S
C3094      C3095   1.421       .  A
C3095      C3096   1.423       .  A
C3095      N3102   1.441       .  S
C3096      C3097   1.408       .  A
C3096      H3101   1.083       .  S
C3097      C3098   1.425       .  A
C3098      N3099   1.437       .  S
N3099      O3103   1.261       .  A
N3099      O3104   1.261       .  A
N3102      O3105   1.263       .  A
N3102      O3106   1.263       .  A
C3107      C3108   1.408       .  A
C3107      C3112   1.420       .  A
C3107      H3114   1.083       .  S
C3108      C3109   1.406       .  A
C3109      C3110   1.397       .  A
C3109      N3116   1.443       .  S
C3110      C3111   1.415       .  A
C3110      H3115   1.083       .  S
C3111      C3112   1.421       .  A
C3112      N3113   1.445       .  S
N3113      O3117   1.261       .  A
N3113      O3118   1.263       .  A
N3116      O3119   1.263       .  A
N3116      O3120   1.262       .  A
C3121      C3122   1.396       .  A
C3121      C3126   1.395       .  A
C3121      H3128   1.084       .  S
C3122      C3123   1.440       .  A
C3123      C3124   1.438       .  A
C3123      N3130   1.447       .  S
C3124      C3125   1.411       .  A
C3124      H3129   1.082       .  S
C3125      C3126   1.423       .  A
C3126      N3127   1.427       .  S
N3127      O3131   1.261       .  A
N3127      O3132   1.262       .  A
N3130      O3133   1.260       .  A
N3130      O3134   1.263       .  A
C3135      C3136   1.397       .  A
C3135      C3140   1.404       .  A
C3135      H3142   1.083       .  S
C3136      C3137   1.424       .  A
C3137      C3138   1.419       .  A
C3137      N3144   1.444       .  S
C3138      C3139   1.403       .  A
C3138      H3143   1.083       .  S
C3139      C3140   1.411       .  A
C3140      N3141   1.426       .  S
N3141      O3145   1.261       .  A
N3141      O3146   1.260       .  A
N3144      O3147   1.263       .  A
N3144      O3148   1.263       .  A
C3149      C3150   1.390       .  A
C3149      C3154   1.384       .  A
C3149      H3156   1.084       .  S
C3150      C3151   1.420       .  A
C3151      C3152   1.421       .  A
C3151      N3158   1.432       .  S
C3152      C3153   1.406       .  A
C3152      H3157   1.083       .  S
C3153      C3154   1.424       .  A
C3154      N3155   1.429       .  S
N3155      O3159   1.262       .  A
N3155      O3160   1.262       .  A
N3158      O3161   1.262       .  A
N3158      O3162   1.263       .  A
C3163      C3164   1.410       .  A
C3163      C3168   1.412       .  A
C3163      H3170   1.078       .  S
C3164      C3165   1.411       .  A
C3165      C3166   1.412       .  A
C3165      N3172   1.439       .  S
C3166      C3167   1.406       .  A
C3166      H3171   1.076       .  S
C3167      C3168   1.407       .  A
C3168      N3169   1.442       .  S
N3169      O3173   1.261       .  A
N3169      O3174   1.263       .  A
N3172      O3175   1.262       .  A
N3172      O3176   1.261       .  A
C3177      C3858   1.399       .  A
C3177      C3182   1.399       .  A
C3177      H3184   1.084       .  S
C3178      C3857   1.399       .  A
C3178      C3179   1.411       .  A
C3179      C3180   1.392       .  A
C3179      N3186   1.433       .  S
C3180      C3861   1.391       .  A
C3180      H3185   1.080       .  S
C3181      C3860   1.391       .  A
C3181      C3182   1.407       .  A
C3182      N3183   1.432       .  S
N3183      O3187   1.262       .  A
N3183      O3188   1.262       .  A
N3186      O3189   1.261   1_556  A
N3186      O3190   1.262       .  A
C3191      C3192   1.400       .  A
C3191      C3196   1.393       .  A
C3191      H3198   1.084       .  S
C3192      C3873   1.424       .  A
C3193      C3872   1.424       .  A
C3193      C3194   1.405       .  A
C3193      N3200   1.446       .  S
C3194      C3195   1.401       .  A
C3194      H3199   1.084       .  S
C3195      C3876   1.419   1_554  A
C3196      C3875   1.419       .  A
C3196      N3197   1.437       .  S
N3197      O3201   1.263       .  A
N3200      O3883   1.260       .  A
N3200      O3204   1.263       .  A
O3203      N3880   1.260       .  A
C3205      C3206   1.397       .  A
C3205      C3210   1.406       .  A
C3205      H3212   1.084       .  S
C3206      C3207   1.422       .  A
C3207      C3208   1.425       .  A
C3207      N3214   1.434       .  S
C3208      C3209   1.404       .  A
C3208      H3213   1.083       .  S
C3209      C3210   1.431       .  A
C3210      N3211   1.439       .  S
N3211      O3215   1.263       .  A
N3211      O3216   1.263       .  A
N3214      O3217   1.263       .  A
N3214      O3218   1.262       .  A
C3219      C3220   1.412       .  A
C3219      C3224   1.419       .  A
C3219      H3226   1.076       .  S
C3220      C3221   1.405       .  A
C3221      C3222   1.404       .  A
C3221      N3228   1.430       .  S
C3222      C3223   1.407       .  A
C3222      H3227   1.074       .  S
C3223      C3224   1.413       .  A
C3224      N3225   1.430       .  S
N3225      O3229   1.262       .  A
N3225      O3230   1.262       .  A
N3228      O3231   1.261       .  A
N3228      O3232   1.262       .  A
C3233      C3234   1.405       .  A
C3233      C3238   1.412       .  A
C3233      H3240   1.083       .  S
C3234      C3235   1.406       .  A
C3235      C3236   1.395       .  A
C3235      N3242   1.442       .  S
C3236      C3237   1.413       .  A
C3236      H3241   1.083       .  S
C3237      C3238   1.417       .  A
C3238      N3239   1.441       .  S
N3239      O3243   1.262       .  A
N3239      O3244   1.261       .  A
N3242      O3245   1.263       .  A
N3242      O3246   1.262       .  A
C3247      C3248   1.389       .  A
C3247      C3252   1.376       .  A
C3247      H3254   1.083       .  S
C3248      C3249   1.421       .  A
C3249      C3250   1.424       .  A
C3249      N3256   1.439       .  S
C3250      C3251   1.411       .  A
C3250      H3255   1.083       .  S
C3251      C3252   1.424       .  A
C3252      N3253   1.433       .  S
N3253      O3257   1.261       .  A
N3253      O3258   1.260       .  A
N3256      O3259   1.263       .  A
N3256      O3260   1.263       .  A
C3261      C4622   1.407       .  A
C3261      C3266   1.402       .  A
C3261      H3268   1.084       .  S
C3262      C4621   1.407       .  A
C3262      C3943   1.417   1_554  A
C3263      C3942   1.417       .  A
C3263      C4624   1.403   1_545  A
C3263      N3270   1.440       .  S
C3264      C4623   1.403       .  A
C3264      C3265   1.405       .  A
C3264      H4629   1.082       .  S
C3265      C3946   1.411       .  A
C3266      C3945   1.411       .  A
C3266      N3267   1.430       .  S
N3267      O3271   1.260       .  A
N3267      O3272   1.262       .  A
H3269      C4624   1.082       .  S
N3270      O3273   1.262       .  A
N3270      O3274   1.262       .  A
C3275      C3956   1.408       .  A
C3275      C3280   1.415       .  A
C3275      H3282   1.083       .  S
C3276      C3458   1.497       .  S
C3276      C3955   1.408       .  A
C3276      C3277   1.417   1_556  A
C3277      C3278   1.397       .  A
C3277      N3284   1.431       .  S
C3278      C3279   1.406   1_554  A
C3278      H3283   1.083       .  S
C3279      C3960   1.422       .  A
C3280      C3959   1.422       .  A
C3280      N3281   1.437       .  S
N3281      O3285   1.263       .  A
N3281      O3966   1.263       .  A
N3284      O3967   1.262       .  A
N3284      O3288   1.262       .  A
O3286      N3961   1.263       .  A
O3287      N3964   1.262       .  A
C3289      C3294   1.418       .  A
C3289      H3296   1.083       .  S
C3290      C3291   1.406       .  A
C3291      C3292   1.378       .  A
C3291      N3298   1.435       .  S
C3292      H3297   1.082       .  S
C3293      C3294   1.416       .  A
C3294      N3295   1.445       .  S
N3295      O3299   1.263       .  A
N3295      O3300   1.262       .  A
N3298      O3301   1.262       .  A
N3298      O3302   1.262       .  A
C3303      C3308   1.418   1_455  A
C3303      H3310   1.083       .  S
C3304      C3305   1.388       .  A
C3305      C3306   1.373       .  A
C3305      N3312   1.435       .  S
C3306      H3311   1.076       .  S
C3307      C3308   1.423       .  A
C3308      N3309   1.440       .  S
N3309      O3313   1.263       .  A
N3309      O3314   1.260       .  A
N3312      O3315   1.262       .  A
N3312      O3316   1.262       .  A
C3317      C3318   1.413       .  A
C3317      C3322   1.440       .  A
C3317      H3324   1.083       .  S
C3318      C3319   1.416       .  A
C3319      C3320   1.384       .  A
C3319      N3326   1.427       .  S
C3320      C3321   1.400       .  A
C3320      H3325   1.083       .  S
C3321      C3322   1.441       .  A
C3322      N3323   1.446       .  S
N3323      O3327   1.263       .  A
N3323      O3328   1.260       .  A
N3326      O3329   1.261       .  A
N3326      O3330   1.262       .  A
C3331      C3332   1.400       .  A
C3331      C3336   1.408       .  A
C3331      H3338   1.084       .  S
C3332      C3333   1.419       .  A
C3333      C3334   1.418       .  A
C3333      N3340   1.443       .  S
C3334      C3335   1.403       .  A
C3334      H3339   1.083       .  S
C3335      C3336   1.414       .  A
C3336      N3337   1.435       .  S
N3337      O3341   1.263       .  A
N3337      O3342   1.261       .  A
N3340      O3343   1.263       .  A
N3340      O3344   1.262       .  A
C3345      C5386   1.412       .  A
C3345      H3352   1.083       .  S
C3346      C5385   1.412       .  A
C3347      C3348   1.413   1_545  A
C3347      N3354   1.436       .  S
C3348      C4709   1.409   1_554  A
C3348      H3353   1.083       .  S
C3349      C3496   1.495       .  S
C3349      C4708   1.409   1_556  A
C3349      C4030   1.415       .  A
C3350      C4029   1.415       .  A
C3350      N3351   1.438       .  S
N3351      O4036   1.263       .  A
N3354      O4037   1.263       .  A
N3354      O3358   1.262   1_655  A
O3356      N4031   1.263       .  A
O3357      N4034   1.263       .  A
C3359      C3360   1.397       .  A
C3359      C3364   1.396       .  A
C3359      H3366   1.082       .  S
C3360      C4041   1.426       .  A
C3361      C4040   1.426       .  A
C3361      C3362   1.411       .  A
C3361      N3368   1.441       .  S
C3362      C4043   1.400       .  A
C3362      H3367   1.079       .  S
C3363      C3439   1.484       .  S
C3363      C4042   1.400       .  A
C3363      C3364   1.415       .  A
C3364      N3365   1.435       .  S
N3365      O3369   1.260       .  A
N3365      O3370   1.261       .  A
N3368      O3371   1.261       .  A
N3368      O3372   1.263       .  A
C3373      C4054   1.387       .  A
C3373      C3378   1.382       .  A
C3373      H3380   1.064       .  S
C3374      C4053   1.387       .  A
C3374      C3375   1.403   1_556  A
C3375      C3376   1.385       .  A
C3375      N3382   1.432       .  S
C3376      C3377   1.402   1_554  A
C3376      H3381   1.079       .  S
C3377      C4058   1.407       .  A
C3378      C4057   1.407       .  A
C3378      N3379   1.427       .  S
N3379      O4063   1.262       .  A
N3379      O3384   1.262       .  A
N3382      O3385   1.259       .  A
N3382      O4066   1.262       .  A
O3383      N4059   1.262       .  A
O3386      N4062   1.262       .  A
C3387      C4068   1.417       .  A
C3387      C3392   1.414       .  A
C3387      H3394   1.082       .  S
C3388      C4067   1.417       .  A
C3388      C3389   1.410       .  A
C3389      C3390   1.400       .  A
C3389      N3396   1.437       .  S
C3390      C3391   1.407       .  A
C3390      H3395   1.076       .  S
C3391      C4072   1.412       .  A
C3392      C4071   1.412       .  A
C3392      N3393   1.444       .  S
N3393      O3397   1.263       .  A
N3393      O4078   1.262       .  A
N3396      O4079   1.263       .  A
N3396      O3400   1.262       .  A
O3398      N4073   1.262       .  A
O3399      N4076   1.263       .  A
O3401     Co3421   2.015       .  S
O3402     Co3422   2.028       .  S
O3403     Co3423   1.987       .  S
O3403      C3411   1.273       .  A
O3404     Co3424   1.883       .  S
O3404      C3412   1.278       .  A
O3405     Co3422   1.989       .  S
O3405      C3411   1.276       .  A
O3406     Co3421   2.062       .  S
O3406      C3412   1.292       .  A
O3407     Co3424   1.983       .  S
O3408     Co3423   1.981       .  S
O3408      C3409   1.271   1_556  A
C3409      C4071   1.484       .  S
C3410      C4040   1.481       .  S
C3411      C3970   1.471       .  S
C3412      C3984   1.460       .  S
O3413     Co3421   1.900       .  S
O3413      C3426   1.269       .  A
O3414     Co3422   2.023       .  S
O3414      C3427   1.276       .  A
O3415     Co3423   1.982       .  S
O3416     Co3424   2.156       .  S
O3416      C3429   1.319       .  A
O3417     Co3422   1.852       .  S
O3418     Co3421   1.954       .  S
O3418      C3428   1.250       .  A
O3419     Co3424   2.115       .  S
O3419      C3426   1.307       .  A
O3420     Co3423   2.000       .  S
O3420      C3427   1.278       .  A
Co3421     O3425   1.945       .  S
Co3424     O3425   2.033       .  S
C3426      C4015   1.494       .  S
C3427      C4001   1.526       .  S
C3428      C4054   1.432       .  S
C3429      C4026   1.504       .  S
O3430     Co3450   1.986       .  S
O3430      C3438   1.269       .  A
O3431     Co3451   1.957       .  S
O3432     Co3452   1.973       .  S
O3432      C3440   1.272       .  A
O3433     Co3453   2.057       .  S
O3433      C3441   1.299       .  A
O3434     Co3451   2.013       .  S
O3434      C3440   1.283       .  A
O3435     Co3450   1.964       .  S
O3435      C3441   1.259       .  A
O3436     Co3453   2.066       .  S
O3436      C3439   1.280       .  A
O3437     Co3452   1.984       .  S
C3438      C3942   1.479       .  S
C3440      C3914   1.466       .  S
C3441      C3928   1.485       .  S
O3442     Co3450   1.889       .  S
O3442      C3455   1.266       .  A
O3443     Co3451   2.025       .  S
O3443      C3456   1.271       .  A
O3444     Co3452   1.972       .  S
O3445     Co3453   1.981       .  S
O3446     Co3451   1.986       .  S
O3446      C3458   1.294       .  A
O3447     Co3450   1.944       .  S
O3447      C3457   1.256       .  A
O3448     Co3453   2.146       .  S
O3448      C3455   1.310       .  A
O3449     Co3452   2.010       .  S
O3449      C3456   1.268       .  A
Co3450     O3454   1.891       .  S
Co3453     O3454   2.044       .  S
C3455      C3900   1.500       .  S
C3456      C3886   1.505       .  S
C3457      C4057   1.452       .  S
O3459     Co3479   1.988       .  S
O3460     Co3480   1.994       .  S
O3460      C3468   1.266       .  A
O3461     Co3481   1.997       .  S
O3461      C3469   1.282       .  A
O3462     Co3482   2.003       .  S
O3462      C3470   1.270       .  A
O3463     Co3480   2.133       .  S
O3463      C3469   1.320       .  A
O3464     Co3479   2.007       .  S
O3464      C3470   1.267       .  A
O3465     Co3482   1.992       .  S
O3466     Co3481   1.988       .  S
O3466      C3467   1.276   1_556  A
C3467      C4068   1.496       .  S
C3468      C3861   1.457       .  S
C3469      C3802   1.518       .  S
C3470      C3819   1.500       .  S
O3471     Co3479   1.875       .  S
O3471      C3484   1.273       .  A
O3472     Co3480   1.992       .  S
O3472      C3485   1.258       .  A
O3473     Co3481   1.997       .  S
O3473      C3486   1.268   1_556  A
O3474     Co3482   1.972       .  S
O3475     Co3480   1.985       .  S
O3475      C3487   1.291   1_556  A
O3476     Co3479   1.986       .  S
O3477     Co3482   2.133       .  S
O3477      C3484   1.314       .  A
O3478     Co3481   1.985       .  S
O3478      C3485   1.264       .  A
Co3480     O3483   1.983   1_556  S
Co3481     O3483   2.050   1_556  S
C3484      C3847   1.483       .  S
C3485      C3830   1.485       .  S
C3486      C3872   1.474       .  S
C3487      C3945   1.487       .  S
O3488     Co3508   1.979       .  S
O3489     Co3509   1.972       .  S
O3490     Co3510   2.111       .  S
O3490      C3498   1.306       .  A
O3491     Co3511   2.025       .  S
O3491      C3499   1.286       .  A
O3492     Co3509   1.919       .  S
O3492      C3498   1.273       .  A
O3493     Co3508   1.987       .  S
O3493      C3499   1.276       .  A
O3494     Co3511   2.002       .  S
O3494      C3497   1.249       .  A
O3495     Co3510   1.995       .  S
O3495      C3496   1.268       .  A
C3497      C3858   1.455       .  S
C3498      C3777   1.506       .  S
C3499      C3788   1.478       .  S
O3500     Co3508   2.008       .  S
O3500      C3513   1.269       .  A
O3501     Co3509   2.113       .  S
O3501      C3514   1.303       .  A
O3502     Co3510   1.986       .  S
O3503     Co3511   1.871       .  S
O3503      C3516   1.286       .  A
O3504     Co3509   2.137       .  S
O3505     Co3508   2.015       .  S
O3505      C3515   1.272   1_655  A
O3506     Co3511   2.002       .  S
O3506      C3513   1.272       .  A
O3507     Co3510   1.898       .  S
O3507      C3514   1.260       .  A
Co3508     O3512   2.018       .  S
Co3511     O3512   1.900       .  S
C3513      C3760   1.492       .  S
C3514      C3749   1.483       .  S
C3516      C3959   1.500       .  S
O3517     Co3537   2.103       .  S
O3517      C3525   1.294       .  A
O3518     Co3538   2.131       .  S
O3518      C3526   1.284       .  A
O3519     Co3539   1.997       .  S
O3519      C3527   1.277       .  A
O3520     Co3540   1.948       .  S
O3520      C3528   1.253       .  A
O3521     Co3538   1.988       .  S
O3521      C3527   1.265       .  A
O3522     Co3537   2.000       .  S
O3522      C3528   1.259       .  A
O3523     Co3540   1.924       .  S
O3523      C3526   1.236       .  A
O3524     Co3539   1.929       .  S
O3524      C3525   1.278       .  A
C3525      C3903   1.506       .  S
C3526      C3889   1.515       .  S
C3527      C3704   1.499       .  S
C3528      C3718   1.463       .  S
O3529     Co3537   1.967       .  S
O3529      C3542   1.271       .  A
O3530     Co3538   1.964       .  S
O3530      C3543   1.253       .  A
O3531     Co3539   2.120       .  S
O3531      C3544   1.294       .  A
O3532     Co3540   2.112       .  S
O3532      C3545   1.279       .  A
O3533     Co3538   1.945       .  S
O3533      C3545   1.239       .  A
O3534     Co3537   1.915       .  S
O3534      C3544   1.267       .  A
O3535     Co3540   1.998       .  S
O3535      C3542   1.274       .  A
O3536     Co3539   2.011       .  S
O3536      C3543   1.272       .  A
Co3537     O3541   2.004       .  S
Co3538     O3541   2.007       .  S
Co3539     O3541   2.032       .  S
Co3540     O3541   2.030       .  S
C3542      C5050   1.484       .  S
C3543      C3732   1.474       .  S
C3544      C4012   1.487       .  S
C3545      C3998   1.515       .  S
O3546     Co3566   2.038       .  S
O3546      C3554   1.283       .  A
O3547     Co3567   2.067       .  S
O3547      C3555   1.266       .  A
O3548     Co3568   2.006       .  S
O3548      C3556   1.276       .  A
O3549     Co3569   1.940       .  S
O3549      C3557   1.244       .  A
O3550     Co3567   2.036       .  S
O3550      C3556   1.276       .  A
O3551     Co3566   2.011       .  S
O3551      C3557   1.261       .  A
O3552     Co3569   1.944       .  S
O3552      C3555   1.239       .  A
O3553     Co3568   1.956       .  S
O3553      C3554   1.283       .  A
C3554      C3931   1.496       .  S
C3555      C3917   1.491       .  S
C3556      C3662   1.511       .  S
C3557      C3721   1.460       .  S
O3558     Co3566   1.962       .  S
O3558      C3571   1.267       .  A
O3559      C3572   1.247       .  A
O3560     Co3568   2.034       .  S
O3560      C3573   1.286       .  A
O3561     Co3569   2.059       .  S
O3561      C3574   1.270       .  A
O3562     Co3567   1.954       .  S
O3562      C3574   1.243       .  A
O3563     Co3566   1.993       .  S
O3563      C3573   1.271       .  A
O3564     Co3569   2.040       .  S
O3564      C3571   1.281       .  A
O3565      C3572   1.315       .  A
Co3566     O3570   2.130       .  S
Co3567     O3570   2.063       .  S
Co3568     O3570   1.935       .  S
Co3569     O3570   2.031       .  S
C3571      C3679   1.500       .  S
C3572      C3735   1.465       .  S
C3573      C3987   1.485       .  S
C3574      C3973   1.474       .  S
O3575     Co3595   2.100       .  S
O3575      C3583   1.288       .  A
O3576     Co3596   2.035       .  S
O3576      C3584   1.265       .  A
O3577     Co3597   2.013       .  S
O3577      C3585   1.266       .  A
O3578      C3586   1.243   1_455  A
O3579     Co3596   1.980       .  S
O3579      C3585   1.259       .  A
O3580      C3586   1.275   1_455  A
O3581     Co3598   1.957       .  S
O3581      C3584   1.242       .  A
O3582     Co3597   1.934       .  S
O3582      C3583   1.263       .  A
C3583      C3763   1.501       .  S
C3584      C3746   1.485       .  S
C3585      C3707   1.485       .  S
C3586      C3634   1.467       .  S
O3587     Co3595   1.994       .  S
O3587      C3600   1.274       .  A
O3588     Co3596   1.924       .  S
O3588      C3601   1.247       .  A
O3589     Co3597   2.138       .  S
O3589      C3602   1.315       .  A
O3590     Co3598   2.088       .  S
O3590      C3603   1.281       .  A
O3591     Co3596   1.942       .  S
O3591      C3603   1.243       .  A
O3592     Co3595   1.929       .  S
O3592      C3602   1.276       .  A
O3593     Co3598   2.025       .  S
O3593      C3600   1.274       .  A
O3594     Co3597   2.039       .  S
O3594      C3601   1.289       .  A
Co3595     O3599   2.064       .  S
Co3596     O3599   2.047       .  S
Co3597     O3599   2.003       .  S
Co3598     O3599   2.026       .  S
C3600      C3665   1.502       .  S
C3601      C3651   1.455       .  S
C3602      C3844   1.494       .  S
C3603      C3833   1.495       .  S
O3604     Co3624   1.946       .  S
O3604      C3612   1.244       .  A
O3605     Co3625   1.957       .  S
O3605      C3613   1.274       .  A
O3606     Co3626   2.029       .  S
O3606      C3614   1.279       .  A
O3607     Co3627   2.045       .  S
O3607      C3615   1.276       .  A
O3608     Co3625   1.957       .  S
O3608      C3614   1.268       .  A
O3609     Co3624   1.925       .  S
O3609      C3615   1.241       .  A
O3610     Co3627   2.066       .  S
O3610      C3613   1.276       .  A
O3611     Co3626   2.069       .  S
O3611      C3612   1.272       .  A
C3612      C3791   1.502       .  S
C3613      C3774   1.491       .  S
C3614      C3693   1.486       .  S
C3615      C3637   1.468       .  S
O3616     Co3624   2.023       .  S
O3616      C3629   1.282       .  A
O3617     Co3625   2.048       .  S
O3617      C3630   1.268       .  A
O3618     Co3626   1.949       .  S
O3618      C3631   1.251       .  A
O3619     Co3627   1.974       .  S
O3619      C3632   1.284       .  A
O3620     Co3625   2.065       .  S
O3620      C3632   1.284       .  A
O3621     Co3624   2.068       .  S
O3621      C3631   1.282       .  A
O3622     Co3627   1.972       .  S
O3622      C3629   1.275       .  A
O3623     Co3626   1.923       .  S
O3623      C3630   1.241       .  A
Co3624     O3628   1.968       .  S
Co3625     O3628   2.031       .  S
Co3626     O3628   2.011       .  S
Co3627     O3628   2.040       .  S
C3629      C3676   1.500       .  S
C3630      C3648   1.480       .  S
C3631      C3816   1.491       .  S
C3632      C3805   1.525       .  S
C3633      C3634   1.392       .  A
C3633      C3638   1.399       .  A
C3633      H3640   1.084       .  S
C3634      C3635   1.426       .  A
C3635      C3636   1.398       .  A
C3635      N3642   1.444       .  S
C3636      C3637   1.393       .  A
C3636      H3641   1.084       .  S
C3637      C3638   1.428       .  A
C3638      N3639   1.440       .  S
N3639      O3643   1.263       .  A
N3639      O3644   1.261       .  A
N3642      O3645   1.262       .  A
N3642      O3646   1.262       .  A
C3647      C3648   1.402       .  A
C3647      C3652   1.411       .  A
C3647      H3654   1.083       .  S
C3648      C3649   1.422       .  A
C3649      C3650   1.390       .  A
C3649      N3656   1.433       .  S
C3650      C3651   1.383       .  A
C3650      H3655   1.084       .  S
C3651      C3652   1.419       .  A
C3652      N3653   1.442       .  S
N3653      O3657   1.263       .  A
N3653      O3658   1.262       .  A
N3656      O3659   1.264       .  A
N3656      O3660   1.259       .  A
C3661      C3662   1.407       .  A
C3661      H3668   1.084       .  S
C3663      C3664   1.417   1_545  A
C3663      N3670   1.433       .  S
C3664      C5025   1.405       .  A
C3664      H3669   1.084       .  S
C3665      C5024   1.405       .  A
C3665      C5026   1.414       .  A
C3666      C5025   1.414       .  A
N3667      O3671   1.262   1_455  A
N3670      O3674   1.263       .  A
C3675      C3676   1.410       .  A
C3675      C3680   1.403       .  A
C3675      H3682   1.083       .  S
C3676      C3677   1.417       .  A
C3677      C3678   1.410       .  A
C3677      N3684   1.435       .  S
C3678      C3679   1.410       .  A
C3678      H3683   1.083       .  S
C3679      C3680   1.418       .  A
C3680      N3681   1.437       .  S
N3681      O3685   1.263       .  A
N3681      O3686   1.263       .  A
N3684      O3687   1.263       .  A
N3684      O3688   1.262       .  A
C3689      C3690   1.406       .  A
C3689      C3694   1.404       .  A
C3689      H3696   1.083       .  S
C3690      C4902   1.484       .  S
C3690      C3691   1.417       .  A
C3691      C3692   1.399       .  A
C3691      N5058   1.438       .  S
C3692      C3693   1.406       .  A
C3692      H3697   1.083       .  S
C3693      C3694   1.418       .  A
C3694      N3695   1.438       .  S
N3695      O3699   1.262       .  A
N3695      O3700   1.262       .  A
N3698      C5051   1.438       .  S
N3698      O3701   1.263       .  A
N3698      O3702   1.263       .  A
C3703      C3704   1.404       .  A
C3703      C3708   1.408       .  A
C3703      H3710   1.083       .  S
C3704      C3705   1.431       .  A
C3705      C3706   1.401       .  A
C3705      N3712   1.434       .  S
C3706      C3707   1.394       .  A
C3706      H3711   1.085       .  S
C3707      C3708   1.409       .  A
C3708      N3709   1.424       .  S
N3709      O3713   1.260       .  A
N3709      O3714   1.262       .  A
N3712      O3715   1.263       .  A
N3712      O3716   1.262       .  A
C3717      C3718   1.405       .  A
C3717      C3722   1.388       .  A
C3717      H3724   1.085       .  S
C3718      C3719   1.408       .  A
C3719      C3720   1.400       .  A
C3719      N3726   1.437       .  S
C3720      C3721   1.407       .  A
C3720      H3725   1.084       .  S
C3721      C3722   1.404       .  A
C3722      N3723   1.431       .  S
N3723      O3727   1.262       .  A
N3723      O3728   1.260       .  A
N3726      O3729   1.262       .  A
N3726      O3730   1.263       .  A
C3731      C3732   1.398       .  A
C3731      C3736   1.396       .  A
C3731      H3738   1.084       .  S
C3732      C3733   1.423       .  A
C3733      C3734   1.396       .  A
C3733      N3740   1.435       .  S
C3734      C3735   1.394       .  A
C3734      H3739   1.085       .  S
C3735      C3736   1.422       .  A
C3736      N3737   1.440       .  S
N3737      O3741   1.263       .  A
N3737      O3742   1.261       .  A
N3740      O3743   1.262       .  A
N3740      O3744   1.262       .  A
C3745      C3746   1.396       .  A
C3745      C3750   1.399       .  A
C3745      H3752   1.084       .  S
C3747      C3748   1.413   1_455  A
C3747      N3754   1.442   1_455  S
C3748      C3749   1.403       .  A
C3748      H3753   1.084       .  S
C3750      N3751   1.443       .  S
N3751      O3755   1.262       .  A
N3754      O3757   1.263   1_655  A
N3754      O3758   1.263       .  A
C3759      C3764   1.419       .  A
C3759      H3766   1.078       .  S
C3760      C3761   1.411       .  A
C3761      C3762   1.406       .  A
C3761      N3768   1.442       .  S
C3762      H3767   1.079       .  S
C3763      C3764   1.430       .  A
C3764      N3765   1.448       .  S
N3765      O3769   1.263       .  A
N3765      O3770   1.260       .  A
N3768      O3771   1.262       .  A
N3768      O3772   1.263       .  A
C3773      C3774   1.394       .  A
C3773      C3778   1.405       .  A
C3773      H3780   1.080       .  S
C3774      C3775   1.421       .  A
C3775      C3776   1.423       .  A
C3775      N3782   1.441       .  S
C3776      C3777   1.408       .  A
C3776      H3781   1.083       .  S
C3777      C3778   1.425       .  A
C3778      N3779   1.437       .  S
N3779      O3783   1.261       .  A
N3779      O3784   1.261       .  A
N3782      O3785   1.263       .  A
N3782      O3786   1.263       .  A
C3787      C3788   1.408       .  A
C3787      C3792   1.420       .  A
C3787      H3794   1.083       .  S
C3788      C3789   1.406       .  A
C3789      C3790   1.397       .  A
C3789      N3796   1.443       .  S
C3790      C3791   1.415       .  A
C3790      H3795   1.083       .  S
C3791      C3792   1.421       .  A
C3792      N3793   1.445       .  S
N3793      O3797   1.261       .  A
N3793      O3798   1.263       .  A
N3796      O3799   1.263       .  A
N3796      O3800   1.262       .  A
C3801      C3802   1.396       .  A
C3801      C3806   1.395       .  A
C3801      H3808   1.084       .  S
C3802      C3803   1.440       .  A
C3803      C3804   1.438       .  A
C3803      N3810   1.447       .  S
C3804      C3805   1.411       .  A
C3804      H3809   1.082       .  S
C3805      C3806   1.423       .  A
C3806      N3807   1.427       .  S
N3807      O3811   1.261       .  A
N3807      O3812   1.262       .  A
N3810      O3813   1.260       .  A
N3810      O3814   1.263       .  A
C3815      C3816   1.397       .  A
C3815      C3820   1.404       .  A
C3815      H3822   1.083       .  S
C3816      C3817   1.424       .  A
C3817      C3818   1.419       .  A
C3817      N3824   1.444       .  S
C3818      C3819   1.403       .  A
C3818      H3823   1.083       .  S
C3819      C3820   1.411       .  A
C3820      N3821   1.426       .  S
N3821      O3825   1.261       .  A
N3821      O3826   1.260       .  A
N3824      O3827   1.263       .  A
N3824      O3828   1.263       .  A
C3829      C3830   1.390       .  A
C3829      C3834   1.384       .  A
C3829      H3836   1.084       .  S
C3830      C3831   1.420       .  A
C3831      C3832   1.421       .  A
C3831      N3838   1.432       .  S
C3832      C3833   1.406       .  A
C3832      H3837   1.083       .  S
C3833      C3834   1.424       .  A
C3834      N3835   1.429       .  S
N3835      O3839   1.262       .  A
N3835      O3840   1.262       .  A
N3838      O3841   1.262       .  A
N3838      O3842   1.263       .  A
C3843      C3844   1.410       .  A
C3843      C3848   1.412       .  A
C3843      H3850   1.078       .  S
C3844      C3845   1.411       .  A
C3845      C3846   1.412       .  A
C3845      N3852   1.439       .  S
C3846      C3847   1.406       .  A
C3846      H3851   1.076       .  S
C3847      C3848   1.407       .  A
C3848      N3849   1.442       .  S
N3849      O3853   1.261       .  A
N3849      O3854   1.263       .  A
N3852      O3855   1.262       .  A
N3852      O3856   1.261       .  A
C3857      C3862   1.399       .  A
C3857      H3864   1.084       .  S
C3858      C3859   1.411       .  A
C3859      C3860   1.392       .  A
C3859      N3866   1.433       .  S
C3860      H3865   1.080       .  S
C3861      C3862   1.407       .  A
C3862      N3863   1.432       .  S
N3863      O3867   1.262       .  A
N3863      O3868   1.262       .  A
N3866      O3869   1.261       .  A
N3866      O3870   1.262       .  A
C3871      C3872   1.400   1_556  A
C3871      C3876   1.393       .  A
C3871      H3878   1.084       .  S
C3873      C3874   1.405       .  A
C3873      N3880   1.446       .  S
C3874      C3875   1.401       .  A
C3874      H3879   1.084       .  S
C3876      N3877   1.437       .  S
N3877      O3881   1.263       .  A
N3880      O3884   1.263       .  A
C3885      C3886   1.397       .  A
C3885      C3890   1.406       .  A
C3885      H3892   1.084       .  S
C3886      C3887   1.422       .  A
C3887      C3888   1.425       .  A
C3887      N3894   1.434       .  S
C3888      C3889   1.404       .  A
C3888      H3893   1.083       .  S
C3889      C3890   1.431       .  A
C3890      N3891   1.439       .  S
N3891      O3895   1.263       .  A
N3891      O3896   1.263       .  A
N3894      O3897   1.263       .  A
N3894      O3898   1.262       .  A
C3899      C3900   1.412       .  A
C3899      C3904   1.419       .  A
C3899      H3906   1.076       .  S
C3900      C3901   1.405       .  A
C3901      C3902   1.404       .  A
C3901      N3908   1.430       .  S
C3902      C3903   1.407       .  A
C3902      H3907   1.074       .  S
C3903      C3904   1.413       .  A
C3904      N3905   1.430       .  S
N3905      O3909   1.262       .  A
N3905      O3910   1.262       .  A
N3908      O3911   1.261       .  A
N3908      O3912   1.262       .  A
C3913      C3914   1.405       .  A
C3913      C3918   1.412       .  A
C3913      H3920   1.083       .  S
C3914      C3915   1.406       .  A
C3915      C3916   1.395       .  A
C3915      N3922   1.442       .  S
C3916      C3917   1.413       .  A
C3916      H3921   1.083       .  S
C3917      C3918   1.417       .  A
C3918      N3919   1.441       .  S
N3919      O3923   1.262       .  A
N3919      O3924   1.261       .  A
N3922      O3925   1.263       .  A
N3922      O3926   1.262       .  A
C3927      C3928   1.389       .  A
C3927      C3932   1.376       .  A
C3927      H3934   1.083       .  S
C3928      C3929   1.421       .  A
C3929      C3930   1.424       .  A
C3929      N3936   1.439       .  S
C3930      C3931   1.411       .  A
C3930      H3935   1.083       .  S
C3931      C3932   1.424       .  A
C3932      N3933   1.433       .  S
N3933      O3937   1.261       .  A
N3933      O3938   1.260       .  A
N3936      O3939   1.263       .  A
N3936      O3940   1.263       .  A
C3941      C5302   1.407       .  A
C3941      C3946   1.402       .  A
C3941      H3948   1.084       .  S
C3942      C5301   1.407       .  A
C3943      C5304   1.403   1_545  A
C3943      N3950   1.440       .  S
C3944      C5303   1.403       .  A
C3944      C3945   1.405   1_556  A
C3944      H5309   1.082       .  S
C3946      N3947   1.430       .  S
N3947      O3951   1.260       .  A
N3947      O3952   1.262       .  A
H3949      C5304   1.082       .  S
N3950      O3953   1.262       .  A
N3950      O3954   1.262       .  A
C3955      C3960   1.415       .  A
C3955      H3962   1.083       .  S
C3956      C3957   1.417       .  A
C3957      C3958   1.397       .  A
C3957      N3964   1.431       .  S
C3958      C3959   1.406       .  A
C3958      H3963   1.083       .  S
C3960      N3961   1.437       .  S
N3961      O3965   1.263       .  A
N3964      O3968   1.262       .  A
C3969      C3974   1.418       .  A
C3969      H3976   1.083       .  S
C3970      C3971   1.406       .  A
C3971      C3972   1.378       .  A
C3971      N3978   1.435       .  S
C3972      H3977   1.082       .  S
C3973      C3974   1.416       .  A
C3974      N3975   1.445       .  S
N3975      O3979   1.263       .  A
N3975      O3980   1.262       .  A
N3978      O3981   1.262       .  A
N3978      O3982   1.262       .  A
C3983      C3988   1.418   1_455  A
C3983      H3990   1.083       .  S
C3984      C3985   1.388       .  A
C3985      C3986   1.373       .  A
C3985      N3992   1.435       .  S
C3986      H3991   1.076       .  S
C3987      C3988   1.423       .  A
C3988      N3989   1.440       .  S
N3989      O3993   1.263       .  A
N3989      O3994   1.260       .  A
N3992      O3995   1.262       .  A
N3992      O3996   1.262       .  A
C3997      C3998   1.413       .  A
C3997      C4002   1.440       .  A
C3997      H4004   1.083       .  S
C3998      C3999   1.416       .  A
C3999      C4000   1.384       .  A
C3999      N4006   1.427       .  S
C4000      C4001   1.400       .  A
C4000      H4005   1.083       .  S
C4001      C4002   1.441       .  A
C4002      N4003   1.446       .  S
N4003      O4007   1.263       .  A
N4003      O4008   1.260       .  A
N4006      O4009   1.261       .  A
N4006      O4010   1.262       .  A
C4011      C4012   1.400       .  A
C4011      C4016   1.408       .  A
C4011      H4018   1.084       .  S
C4012      C4013   1.419       .  A
C4013      C4014   1.418       .  A
C4013      N4020   1.443       .  S
C4014      C4015   1.403       .  A
C4014      H4019   1.083       .  S
C4015      C4016   1.414       .  A
C4016      N4017   1.435       .  S
N4017      O4021   1.263       .  A
N4017      O4022   1.261       .  A
N4020      O4023   1.263       .  A
N4020      O4024   1.262       .  A
C4025      C4706   1.412       .  A
C4025      H4032   1.083       .  S
C4026      C4705   1.412       .  A
C4027      C4028   1.413   1_545  A
C4027      N4034   1.436       .  S
C4028      C5389   1.409       .  A
C4028      H4033   1.083       .  S
C4029      C5388   1.409       .  A
C4030      N4031   1.438       .  S
N4034      O4038   1.262   1_655  A
C4039      C4040   1.397   1_556  A
C4039      C4044   1.396       .  A
C4039      H4046   1.082       .  S
C4041      C4042   1.411       .  A
C4041      N4048   1.441       .  S
C4042      H4047   1.079       .  S
C4043      C4044   1.415   1_554  A
C4044      N4045   1.435       .  S
N4045      O4049   1.260       .  A
N4045      O4050   1.261       .  A
N4048      O4051   1.261       .  A
N4048      O4052   1.263       .  A
C4053      C4058   1.382       .  A
C4053      H4060   1.064       .  S
C4054      C4055   1.403       .  A
C4055      C4056   1.385       .  A
C4055      N4062   1.432       .  S
C4056      C4057   1.402       .  A
C4056      H4061   1.079       .  S
C4058      N4059   1.427       .  S
N4059      O4064   1.262       .  A
N4062      O4065   1.259       .  A
C4067      C4072   1.414       .  A
C4067      H4074   1.082       .  S
C4068      C4069   1.410   1_554  A
C4069      C4070   1.400       .  A
C4069      N4076   1.437       .  S
C4070      C4071   1.407   1_556  A
C4070      H4075   1.076       .  S
C4072      N4073   1.444       .  S
N4073      O4077   1.263       .  A
N4076      O4080   1.262       .  A
O4081     Co4101   2.015       .  S
O4081      C4769   1.275       .  A
O4082     Co4102   2.028       .  S
O4083     Co4103   1.987       .  S
O4083      C4091   1.273       .  A
O4084     Co4104   1.883       .  S
O4084      C4092   1.278       .  A
O4085     Co4102   1.989       .  S
O4085      C4091   1.276       .  A
O4086     Co4101   2.062       .  S
O4086      C4092   1.292       .  A
O4087     Co4104   1.983       .  S
O4088     Co4103   1.981       .  S
O4088      C4089   1.271       .  A
C4089      O4761   1.275       .  A
C4089      C4751   1.484       .  S
C4090      C4720   1.481       .  S
C4091      C4650   1.471       .  S
C4092      C4664   1.460       .  S
O4093     Co4101   1.900       .  S
O4093      C4106   1.269       .  A
O4094     Co4102   2.023       .  S
O4094      C4107   1.276       .  A
O4095     Co4103   1.982       .  S
O4095      C4788   1.257       .  A
O4096     Co4104   2.156       .  S
O4096      C4109   1.319   1_554  A
O4097     Co4102   1.852       .  S
O4097      C4789   1.277       .  A
O4098     Co4101   1.954       .  S
O4098      C4108   1.250   1_554  A
O4099     Co4104   2.115       .  S
O4099      C4106   1.307       .  A
O4100     Co4103   2.000       .  S
O4100      C4107   1.278       .  A
Co4101     O4105   1.945   1_554  S
Co4102     O4785   1.880       .  S
Co4103     O4785   2.011       .  S
Co4104     O4105   2.033   1_554  S
O4105     Co4782   1.880       .  S
O4105     Co4783   2.011       .  S
C4106      C4695   1.494       .  S
C4107      C4681   1.526       .  S
C4108      O4775   1.257       .  A
C4108      C4734   1.432       .  S
C4109      O4777   1.277       .  A
C4109      C4706   1.504       .  S
O4110     Co4130   1.986       .  S
O4110      C4118   1.269       .  A
O4111     Co4131   1.957       .  S
O4111      C4799   1.244       .  A
O4112     Co4132   1.973       .  S
O4112      C4120   1.272       .  A
O4113     Co4133   2.057       .  S
O4113      C4121   1.299       .  A
O4114     Co4131   2.013       .  S
O4114      C4120   1.283       .  A
O4115     Co4130   1.964       .  S
O4115      C4121   1.259       .  A
O4116     Co4133   2.066       .  S
O4116      C4119   1.280       .  A
O4117     Co4132   1.984       .  S
O4117      C4798   1.271       .  A
C4118      O4797   1.271   1_554  A
C4118      C4622   1.479       .  S
C4119      O4791   1.244   1_554  A
C4119      C5403   1.484       .  S
C4120      C4594   1.466       .  S
C4121      C4608   1.485       .  S
O4122     Co4130   1.889       .  S
O4122      C4135   1.266       .  A
O4123     Co4131   2.025       .  S
O4123      C4136   1.271       .  A
O4124     Co4132   1.972       .  S
O4124      C4817   1.260       .  A
O4125     Co4133   1.981       .  S
O4125      C4818   1.291   1_554  A
O4126     Co4131   1.986       .  S
O4126      C4138   1.294       .  A
O4127     Co4130   1.944       .  S
O4127      C4137   1.256   1_554  A
O4128     Co4133   2.146       .  S
O4128      C4135   1.310       .  A
O4129     Co4132   2.010       .  S
O4129      C4136   1.268       .  A
Co4130     O4134   1.891   1_554  S
Co4131     O4814   1.999       .  S
Co4132     O4814   2.023       .  S
Co4133     O4134   2.044   1_554  S
O4134     Co4811   1.999       .  S
O4134     Co4812   2.023       .  S
C4135      C4580   1.500       .  S
C4136      C4566   1.505       .  S
C4137      O4804   1.260       .  A
C4137      C4737   1.452       .  S
C4138      O4805   1.291       .  A
C4138      C5316   1.497       .  S
O4139     Co4159   1.988       .  S
O4139      C4827   1.270       .  A
O4140     Co4160   1.994       .  S
O4140      C4148   1.266       .  A
O4141     Co4161   1.997       .  S
O4141      C4149   1.282       .  A
O4142     Co4162   2.003       .  S
O4142      C4150   1.270       .  A
O4143     Co4160   2.133       .  S
O4143      C4149   1.320       .  A
O4144     Co4159   2.007       .  S
O4144      C4150   1.267       .  A
O4145     Co4162   1.992       .  S
O4145      C4828   1.253   1_554  A
O4146     Co4161   1.988       .  S
O4146      C4147   1.276       .  A
C4147      O4819   1.270       .  A
C4147      C4748   1.496       .  S
C4148      O4825   1.253       .  A
C4148      C4541   1.457       .  S
C4149      C4482   1.518       .  S
C4150      C4499   1.500       .  S
O4151     Co4159   1.875       .  S
O4151      C4164   1.273       .  A
O4152     Co4160   1.992       .  S
O4152      C4165   1.258       .  A
O4153     Co4161   1.997       .  S
O4153      C4166   1.268       .  A
O4154     Co4162   1.972       .  S
O4154      C4847   1.289       .  A
O4155     Co4160   1.985       .  S
O4155      C4167   1.291       .  A
O4156     Co4159   1.986       .  S
O4156      C4846   1.256       .  A
O4157     Co4162   2.133       .  S
O4157      C4164   1.314       .  A
O4158     Co4161   1.985       .  S
O4158      C4165   1.264       .  A
Co4159     O4843   1.873       .  S
Co4160     O4163   1.983       .  S
Co4161     O4163   2.050       .  S
Co4162     O4843   2.075       .  S
O4163     Co4839   1.873       .  S
O4163     Co4842   2.075       .  S
C4164      C4527   1.483       .  S
C4165      C4510   1.485       .  S
C4166      O4836   1.256       .  A
C4166      C4552   1.474       .  S
C4167      O4834   1.289       .  A
C4167      C4625   1.487       .  S
O4168     Co4188   1.979       .  S
O4168      C4856   1.267   1_554  A
O4169     Co4189   1.972       .  S
O4169      C4857   1.240       .  A
O4170     Co4190   2.111       .  S
O4170      C4178   1.306       .  A
O4171     Co4191   2.025       .  S
O4171      C4179   1.286       .  A
O4172     Co4189   1.919       .  S
O4172      C4178   1.273       .  A
O4173     Co4188   1.987       .  S
O4173      C4179   1.276       .  A
O4174     Co4191   2.002       .  S
O4174      C4177   1.249   1_554  A
O4175     Co4190   1.995       .  S
O4175      C4176   1.268       .  A
C4176      O4848   1.267       .  A
C4176      C5389   1.495       .  S
C4177      O4849   1.240       .  A
C4177      C4538   1.455       .  S
C4178      C4457   1.506       .  S
C4179      C4468   1.478       .  S
O4180     Co4188   2.008       .  S
O4180      C4193   1.269       .  A
O4181     Co4189   2.113       .  S
O4181      C4194   1.303       .  A
O4182     Co4190   1.986       .  S
O4182      C4875   1.257   1_655  A
O4183     Co4191   1.871       .  S
O4183      C4196   1.286   1_554  A
O4184     Co4189   2.137       .  S
O4184      C4876   1.316       .  A
O4185     Co4188   2.015       .  S
O4185      C4195   1.272   1_655  A
O4186     Co4191   2.002       .  S
O4186      C4193   1.272       .  A
O4187     Co4190   1.898       .  S
O4187      C4194   1.260       .  A
Co4188     O4192   2.018       .  S
Co4189     O4872   2.032       .  S
Co4190     O4872   1.973       .  S
Co4191     O4192   1.900       .  S
O4192     Co4869   2.032   1_554  S
O4192     Co4870   1.973   1_554  S
C4193      C4440   1.492       .  S
C4194      C4429   1.483       .  S
C4195      O4862   1.257   1_454  A
C4196      O4864   1.316       .  A
C4196      C4639   1.500       .  S
O4197     Co4217   2.103       .  S
O4197      C4205   1.294       .  A
O4198     Co4218   2.131       .  S
O4198      C4206   1.284       .  A
O4199     Co4219   1.997       .  S
O4199      C4207   1.277       .  A
O4200     Co4220   1.948       .  S
O4200      C4208   1.253       .  A
O4201     Co4218   1.988       .  S
O4201      C4207   1.265       .  A
O4202     Co4217   2.000       .  S
O4202      C4208   1.259       .  A
O4203     Co4220   1.924       .  S
O4203      C4206   1.236       .  A
O4204     Co4219   1.929       .  S
O4204      C4205   1.278       .  A
C4205      C4583   1.506       .  S
C4206      C4569   1.515       .  S
C4207      C4384   1.499       .  S
C4208      C4398   1.463       .  S
O4209     Co4217   1.967       .  S
O4209      C4222   1.271       .  A
O4210     Co4218   1.964       .  S
O4210      C4223   1.253       .  A
O4211     Co4219   2.120       .  S
O4211      C4224   1.294       .  A
O4212     Co4220   2.112       .  S
O4212      C4225   1.279       .  A
O4213     Co4218   1.945       .  S
O4213      C4225   1.239       .  A
O4214     Co4217   1.915       .  S
O4214      C4224   1.267       .  A
O4215     Co4220   1.998       .  S
O4215      C4222   1.274       .  A
O4216     Co4219   2.011       .  S
O4216      C4223   1.272       .  A
Co4217     O4221   2.004       .  S
Co4218     O4221   2.007       .  S
Co4219     O4221   2.032       .  S
Co4220     O4221   2.030       .  S
C4223      C4412   1.474       .  S
C4224      C4692   1.487       .  S
C4225      C4678   1.515       .  S
O4226     Co4246   2.038       .  S
O4226      C4234   1.283       .  A
O4227     Co4247   2.067       .  S
O4227      C4235   1.266       .  A
O4228     Co4248   2.006       .  S
O4228      C4236   1.276       .  A
O4229     Co4249   1.940       .  S
O4229      C4237   1.244       .  A
O4230     Co4247   2.036       .  S
O4230      C4236   1.276       .  A
O4231     Co4246   2.011       .  S
O4231      C4237   1.261       .  A
O4232     Co4249   1.944       .  S
O4232      C4235   1.239       .  A
O4233     Co4248   1.956       .  S
O4233      C4234   1.283       .  A
C4234      C4611   1.496       .  S
C4235      C4597   1.491       .  S
C4236      C4342   1.511       .  S
C4237      C4401   1.460       .  S
O4238     Co4246   1.962       .  S
O4238      C4251   1.267       .  A
O4239      C4252   1.247       .  A
O4240     Co4248   2.034       .  S
O4240      C4253   1.286       .  A
O4241     Co4249   2.059       .  S
O4241      C4254   1.270       .  A
O4242     Co4247   1.954       .  S
O4242      C4254   1.243       .  A
O4243     Co4246   1.993       .  S
O4243      C4253   1.271       .  A
O4244     Co4249   2.040       .  S
O4244      C4251   1.281       .  A
O4245      C4252   1.315       .  A
Co4246     O4250   2.130       .  S
Co4247     O4250   2.063       .  S
Co4248     O4250   1.935       .  S
Co4249     O4250   2.031       .  S
C4251      C4359   1.500       .  S
C4252      C4415   1.465       .  S
C4253      C4667   1.485       .  S
C4254      C4653   1.474       .  S
O4255     Co4275   2.100       .  S
O4255      C4263   1.288       .  A
O4256     Co4276   2.035       .  S
O4256      C4264   1.265       .  A
O4257     Co4277   2.013       .  S
O4257      C4265   1.266       .  A
O4258      C4266   1.243   1_455  A
O4259     Co4276   1.980       .  S
O4259      C4265   1.259       .  A
O4260      C4266   1.275   1_455  A
O4261     Co4278   1.957       .  S
O4261      C4264   1.242       .  A
O4262     Co4277   1.934       .  S
O4262      C4263   1.263       .  A
C4263      C4443   1.501       .  S
C4264      C4426   1.485       .  S
C4265      C4387   1.485       .  S
C4266      C4314   1.467       .  S
O4267     Co4275   1.994       .  S
O4267      C4280   1.274       .  A
O4268     Co4276   1.924       .  S
O4268      C4281   1.247       .  A
O4269     Co4277   2.138       .  S
O4269      C4282   1.315       .  A
O4270     Co4278   2.088       .  S
O4270      C4283   1.281       .  A
O4271     Co4276   1.942       .  S
O4271      C4283   1.243       .  A
O4272     Co4275   1.929       .  S
O4272      C4282   1.276       .  A
O4273     Co4278   2.025       .  S
O4273      C4280   1.274       .  A
O4274     Co4277   2.039       .  S
O4274      C4281   1.289       .  A
Co4275     O4279   2.064       .  S
Co4276     O4279   2.047       .  S
Co4277     O4279   2.003       .  S
Co4278     O4279   2.026       .  S
C4280      C4345   1.502       .  S
C4281      C4331   1.455       .  S
C4282      C4524   1.494       .  S
C4283      C4513   1.495       .  S
O4284     Co4304   1.946       .  S
O4284      C4292   1.244       .  A
O4285     Co4305   1.957       .  S
O4285      C4293   1.274       .  A
O4286     Co4306   2.029       .  S
O4286      C4294   1.279       .  A
O4287     Co4307   2.045       .  S
O4287      C4295   1.276       .  A
O4288     Co4305   1.957       .  S
O4288      C4294   1.268       .  A
O4289     Co4304   1.925       .  S
O4289      C4295   1.241       .  A
O4290     Co4307   2.066       .  S
O4290      C4293   1.276       .  A
O4291     Co4306   2.069       .  S
O4291      C4292   1.272       .  A
C4292      C4471   1.502       .  S
C4293      C4454   1.491       .  S
C4294      C4373   1.486       .  S
C4295      C4317   1.468       .  S
O4296     Co4304   2.023       .  S
O4296      C4309   1.282       .  A
O4297     Co4305   2.048       .  S
O4297      C4310   1.268       .  A
O4298     Co4306   1.949       .  S
O4298      C4311   1.251       .  A
O4299     Co4307   1.974       .  S
O4299      C4312   1.284       .  A
O4300     Co4305   2.065       .  S
O4300      C4312   1.284       .  A
O4301     Co4304   2.068       .  S
O4301      C4311   1.282       .  A
O4302     Co4307   1.972       .  S
O4302      C4309   1.275       .  A
O4303     Co4306   1.923       .  S
O4303      C4310   1.241       .  A
Co4304     O4308   1.968       .  S
Co4305     O4308   2.031       .  S
Co4306     O4308   2.011       .  S
Co4307     O4308   2.040       .  S
C4309      C4356   1.500       .  S
C4310      C4328   1.480       .  S
C4311      C4496   1.491       .  S
C4312      C4485   1.525       .  S
C4313      C4314   1.392       .  A
C4313      C4318   1.399       .  A
C4313      H4320   1.084       .  S
C4314      C4315   1.426       .  A
C4315      C4316   1.398       .  A
C4315      N4322   1.444       .  S
C4316      C4317   1.393       .  A
C4316      H4321   1.084       .  S
C4317      C4318   1.428       .  A
C4318      N4319   1.440       .  S
N4319      O4323   1.263       .  A
N4319      O4324   1.261       .  A
N4322      O4325   1.262       .  A
N4322      O4326   1.262       .  A
C4327      C4328   1.402       .  A
C4327      C4332   1.411       .  A
C4327      H4334   1.083       .  S
C4328      C4329   1.422       .  A
C4329      C4330   1.390       .  A
C4329      N4336   1.433       .  S
C4330      C4331   1.383       .  A
C4330      H4335   1.084       .  S
C4331      C4332   1.419       .  A
C4332      N4333   1.442       .  S
N4333      O4337   1.263       .  A
N4333      O4338   1.262       .  A
N4336      O4339   1.264       .  A
N4336      O4340   1.259       .  A
C4341      C4342   1.407       .  A
C4341      H4348   1.084       .  S
C4343      C4344   1.417       .  A
C4343      N4350   1.433       .  S
C4344      H4349   1.084       .  S
N4347      O4351   1.262   1_455  A
N4350      O4354   1.263       .  A
C4355      C4356   1.410       .  A
C4355      C4360   1.403       .  A
C4355      H4362   1.083       .  S
C4356      C4357   1.417       .  A
C4357      C4358   1.410       .  A
C4357      N4364   1.435       .  S
C4358      C4359   1.410       .  A
C4358      H4363   1.083       .  S
C4359      C4360   1.418       .  A
C4360      N4361   1.437       .  S
N4361      O4365   1.263       .  A
N4361      O4366   1.263       .  A
N4364      O4367   1.263       .  A
N4364      O4368   1.262       .  A
C4369      C4370   1.406       .  A
C4369      C4374   1.404   1_545  A
C4369      H4376   1.083       .  S
C4370      C4371   1.417       .  A
C4371      C4372   1.399   1_545  A
C4372      C4373   1.406       .  A
C4372      H4377   1.083       .  S
C4373      C4374   1.418       .  A
C4374      N4375   1.438       .  S
N4375      O4379   1.262       .  A
N4375      O4380   1.262       .  A
N4378      O4381   1.263       .  A
N4378      O4382   1.263       .  A
C4383      C4384   1.404       .  A
C4383      C4388   1.408       .  A
C4383      H4390   1.083       .  S
C4384      C4385   1.431       .  A
C4385      C4386   1.401       .  A
C4385      N4392   1.434       .  S
C4386      C4387   1.394       .  A
C4386      H4391   1.085       .  S
C4387      C4388   1.409       .  A
C4388      N4389   1.424       .  S
N4389      O4393   1.260       .  A
N4389      O4394   1.262       .  A
N4392      O4395   1.263       .  A
N4392      O4396   1.262       .  A
C4397      C4398   1.405       .  A
C4397      C4402   1.388       .  A
C4397      H4404   1.085       .  S
C4398      C4399   1.408       .  A
C4399      C4400   1.400       .  A
C4399      N4406   1.437       .  S
C4400      C4401   1.407       .  A
C4400      H4405   1.084       .  S
C4401      C4402   1.404       .  A
C4402      N4403   1.431       .  S
N4403      O4407   1.262       .  A
N4403      O4408   1.260       .  A
N4406      O4409   1.262       .  A
N4406      O4410   1.263       .  A
C4411      C4412   1.398       .  A
C4411      C4416   1.396       .  A
C4411      H4418   1.084       .  S
C4412      C4413   1.423       .  A
C4413      C4414   1.396       .  A
C4413      N4420   1.435       .  S
C4414      C4415   1.394       .  A
C4414      H4419   1.085       .  S
C4415      C4416   1.422       .  A
C4416      N4417   1.440       .  S
N4417      O4421   1.263       .  A
N4417      O4422   1.261       .  A
N4420      O4423   1.262       .  A
N4420      O4424   1.262       .  A
C4425      C4426   1.396       .  A
C4425      C4430   1.399       .  A
C4425      H4432   1.084       .  S
C4427      C4428   1.413   1_455  A
C4427      N4434   1.442   1_455  S
C4428      C4429   1.403       .  A
C4428      H4433   1.084       .  S
C4430      N4431   1.443       .  S
N4431      O4435   1.262       .  A
N4434      O4437   1.263   1_655  A
N4434      O4438   1.263       .  A
C4439      C4444   1.419       .  A
C4439      H4446   1.078       .  S
C4440      C4441   1.411       .  A
C4441      C4442   1.406       .  A
C4441      N4448   1.442       .  S
C4442      H4447   1.079       .  S
C4443      C4444   1.430       .  A
C4444      N4445   1.448       .  S
N4445      O4449   1.263       .  A
N4445      O4450   1.260       .  A
N4448      O4451   1.262       .  A
N4448      O4452   1.263       .  A
C4453      C4454   1.394       .  A
C4453      C4458   1.405       .  A
C4453      H4460   1.080       .  S
C4454      C4455   1.421       .  A
C4455      C4456   1.423       .  A
C4455      N4462   1.441       .  S
C4456      C4457   1.408       .  A
C4456      H4461   1.083       .  S
C4457      C4458   1.425       .  A
C4458      N4459   1.437       .  S
N4459      O4463   1.261       .  A
N4459      O4464   1.261       .  A
N4462      O4465   1.263       .  A
N4462      O4466   1.263       .  A
C4467      C4468   1.408       .  A
C4467      C4472   1.420       .  A
C4467      H4474   1.083       .  S
C4468      C4469   1.406       .  A
C4469      C4470   1.397       .  A
C4469      N4476   1.443       .  S
C4470      C4471   1.415       .  A
C4470      H4475   1.083       .  S
C4471      C4472   1.421       .  A
C4472      N4473   1.445       .  S
N4473      O4477   1.261       .  A
N4473      O4478   1.263       .  A
N4476      O4479   1.263       .  A
N4476      O4480   1.262       .  A
C4481      C4482   1.396       .  A
C4481      C4486   1.395       .  A
C4481      H4488   1.084       .  S
C4482      C4483   1.440       .  A
C4483      C4484   1.438       .  A
C4483      N4490   1.447       .  S
C4484      C4485   1.411       .  A
C4484      H4489   1.082       .  S
C4485      C4486   1.423       .  A
C4486      N4487   1.427       .  S
N4487      O4491   1.261       .  A
N4487      O4492   1.262       .  A
N4490      O4493   1.260       .  A
N4490      O4494   1.263       .  A
C4495      C4496   1.397       .  A
C4495      C4500   1.404       .  A
C4495      H4502   1.083       .  S
C4496      C4497   1.424       .  A
C4497      C4498   1.419       .  A
C4497      N4504   1.444       .  S
C4498      C4499   1.403       .  A
C4498      H4503   1.083       .  S
C4499      C4500   1.411       .  A
C4500      N4501   1.426       .  S
N4501      O4505   1.261       .  A
N4501      O4506   1.260       .  A
N4504      O4507   1.263       .  A
N4504      O4508   1.263       .  A
C4509      C4510   1.390       .  A
C4509      C4514   1.384       .  A
C4509      H4516   1.084       .  S
C4510      C4511   1.420       .  A
C4511      C4512   1.421       .  A
C4511      N4518   1.432       .  S
C4512      C4513   1.406       .  A
C4512      H4517   1.083       .  S
C4513      C4514   1.424       .  A
C4514      N4515   1.429       .  S
N4515      O4519   1.262       .  A
N4515      O4520   1.262       .  A
N4518      O4521   1.262       .  A
N4518      O4522   1.263       .  A
C4523      C4524   1.410       .  A
C4523      C4528   1.412       .  A
C4523      H4530   1.078       .  S
C4524      C4525   1.411       .  A
C4525      C4526   1.412       .  A
C4525      N4532   1.439       .  S
C4526      C4527   1.406       .  A
C4526      H4531   1.076       .  S
C4527      C4528   1.407       .  A
C4528      N4529   1.442       .  S
N4529      O4533   1.261       .  A
N4529      O4534   1.263       .  A
N4532      O4535   1.262       .  A
N4532      O4536   1.261       .  A
C4537      C5218   1.399       .  A
C4537      C4542   1.399       .  A
C4537      H4544   1.084       .  S
C4538      C5217   1.399       .  A
C4538      C4539   1.411       .  A
C4539      C4540   1.392       .  A
C4539      N4546   1.433       .  S
C4540      C5221   1.391       .  A
C4540      H4545   1.080       .  S
C4541      C5220   1.391       .  A
C4541      C4542   1.407       .  A
C4542      N4543   1.432       .  S
N4543      O4547   1.262       .  A
N4543      O4548   1.262       .  A
N4546      O4549   1.261   1_556  A
N4546      O4550   1.262       .  A
C4551      C4552   1.400       .  A
C4551      C4556   1.393       .  A
C4551      H4558   1.084       .  S
C4552      C5233   1.424       .  A
C4553      C5232   1.424       .  A
C4553      C4554   1.405       .  A
C4553      N4560   1.446       .  S
C4554      C4555   1.401       .  A
C4554      H4559   1.084       .  S
C4555      C5236   1.419   1_554  A
C4556      C5235   1.419       .  A
C4556      N4557   1.437       .  S
N4557      O4561   1.263       .  A
N4560      O5243   1.260       .  A
N4560      O4564   1.263       .  A
O4563      N5240   1.260       .  A
C4565      C4566   1.397       .  A
C4565      C4570   1.406       .  A
C4565      H4572   1.084       .  S
C4566      C4567   1.422       .  A
C4567      C4568   1.425       .  A
C4567      N4574   1.434       .  S
C4568      C4569   1.404       .  A
C4568      H4573   1.083       .  S
C4569      C4570   1.431       .  A
C4570      N4571   1.439       .  S
N4571      O4575   1.263       .  A
N4571      O4576   1.263       .  A
N4574      O4577   1.263       .  A
N4574      O4578   1.262       .  A
C4579      C4580   1.412       .  A
C4579      C4584   1.419       .  A
C4579      H4586   1.076       .  S
C4580      C4581   1.405       .  A
C4581      C4582   1.404       .  A
C4581      N4588   1.430       .  S
C4582      C4583   1.407       .  A
C4582      H4587   1.074       .  S
C4583      C4584   1.413       .  A
C4584      N4585   1.430       .  S
N4585      O4589   1.262       .  A
N4585      O4590   1.262       .  A
N4588      O4591   1.261       .  A
N4588      O4592   1.262       .  A
C4593      C4594   1.405       .  A
C4593      C4598   1.412       .  A
C4593      H4600   1.083       .  S
C4594      C4595   1.406       .  A
C4595      C4596   1.395       .  A
C4595      N4602   1.442       .  S
C4596      C4597   1.413       .  A
C4596      H4601   1.083       .  S
C4597      C4598   1.417       .  A
C4598      N4599   1.441       .  S
N4599      O4603   1.262       .  A
N4599      O4604   1.261       .  A
N4602      O4605   1.263       .  A
N4602      O4606   1.262       .  A
C4607      C4608   1.389       .  A
C4607      C4612   1.376       .  A
C4607      H4614   1.083       .  S
C4608      C4609   1.421       .  A
C4609      C4610   1.424       .  A
C4609      N4616   1.439       .  S
C4610      C4611   1.411       .  A
C4610      H4615   1.083       .  S
C4611      C4612   1.424       .  A
C4612      N4613   1.433       .  S
N4613      O4617   1.261       .  A
N4613      O4618   1.260       .  A
N4616      O4619   1.263       .  A
N4616      O4620   1.263       .  A
C4621      C4626   1.402   1_545  A
C4621      H4628   1.084       .  S
C4622      C5303   1.417   1_554  A
C4623      C5302   1.417       .  A
C4623      N4630   1.440       .  S
C4624      C4625   1.405       .  A
C4625      C5306   1.411       .  A
C4626      C5305   1.411       .  A
C4626      N4627   1.430       .  S
N4627      O4631   1.260       .  A
N4627      O4632   1.262   1_565  A
N4630      O4633   1.262       .  A
N4630      O4634   1.262       .  A
C4635      C5316   1.408       .  A
C4635      C4640   1.415       .  A
C4635      H4642   1.083       .  S
C4636      C4818   1.497       .  S
C4636      C5315   1.408       .  A
C4636      C4637   1.417   1_556  A
C4637      C4638   1.397       .  A
C4637      N4644   1.431       .  S
C4638      C4639   1.406   1_554  A
C4638      H4643   1.083       .  S
C4639      C5320   1.422       .  A
C4640      C5319   1.422       .  A
C4640      N4641   1.437       .  S
N4641      O4645   1.263       .  A
N4641      O5326   1.263       .  A
N4644      O5327   1.262       .  A
N4644      O4648   1.262       .  A
O4646      N5321   1.263       .  A
O4647      N5324   1.262       .  A
C4649      C4654   1.418       .  A
C4649      H4656   1.083       .  S
C4650      C4651   1.406       .  A
C4651      C4652   1.378       .  A
C4651      N4658   1.435       .  S
C4652      H4657   1.082       .  S
C4653      C4654   1.416       .  A
C4654      N4655   1.445       .  S
N4655      O4659   1.263       .  A
N4655      O4660   1.262       .  A
N4658      O4661   1.262       .  A
N4658      O4662   1.262       .  A
C4663      C4668   1.418   1_455  A
C4663      H4670   1.083       .  S
C4664      C4665   1.388       .  A
C4665      C4666   1.373       .  A
C4665      N4672   1.435       .  S
C4666      H4671   1.076       .  S
C4667      C4668   1.423       .  A
C4668      N4669   1.440       .  S
N4669      O4673   1.263       .  A
N4669      O4674   1.260       .  A
N4672      O4675   1.262       .  A
N4672      O4676   1.262       .  A
C4677      C4678   1.413       .  A
C4677      C4682   1.440       .  A
C4677      H4684   1.083       .  S
C4678      C4679   1.416       .  A
C4679      C4680   1.384       .  A
C4679      N4686   1.427       .  S
C4680      C4681   1.400       .  A
C4680      H4685   1.083       .  S
C4681      C4682   1.441       .  A
C4682      N4683   1.446       .  S
N4683      O4687   1.263       .  A
N4683      O4688   1.260       .  A
N4686      O4689   1.261       .  A
N4686      O4690   1.262       .  A
C4691      C4692   1.400       .  A
C4691      C4696   1.408       .  A
C4691      H4698   1.084       .  S
C4692      C4693   1.419       .  A
C4693      C4694   1.418       .  A
C4693      N4700   1.443       .  S
C4694      C4695   1.403       .  A
C4694      H4699   1.083       .  S
C4695      C4696   1.414       .  A
C4696      N4697   1.435       .  S
N4697      O4701   1.263       .  A
N4697      O4702   1.261       .  A
N4700      O4703   1.263       .  A
N4700      O4704   1.262       .  A
C4705      H4712   1.083       .  S
C4707      C4708   1.413       .  A
C4707      N4714   1.436       .  S
C4708      H4713   1.083       .  S
C4709      C4856   1.495       .  S
C4709      C5390   1.415       .  A
C4710      C5389   1.415       .  A
C4710      N4711   1.438       .  S
N4711      O5396   1.263       .  A
N4714      O5397   1.263       .  A
N4714      O4718   1.262   1_655  A
O4716      N5391   1.263       .  A
O4717      N5394   1.263       .  A
C4719      C4720   1.397       .  A
C4719      C4724   1.396       .  A
C4719      H4726   1.082       .  S
C4720      C5401   1.426       .  A
C4721      C5400   1.426       .  A
C4721      C4722   1.411       .  A
C4721      N4728   1.441       .  S
C4722      C5403   1.400       .  A
C4722      H4727   1.079       .  S
C4723      C4799   1.484       .  S
C4723      C5402   1.400       .  A
C4723      C4724   1.415       .  A
C4724      N4725   1.435       .  S
N4725      O4729   1.260       .  A
N4725      O4730   1.261       .  A
N4728      O4731   1.261       .  A
N4728      O4732   1.263       .  A
C4733      C5414   1.387       .  A
C4733      C4738   1.382       .  A
C4733      H4740   1.064       .  S
C4734      C5413   1.387       .  A
C4734      C4735   1.403   1_556  A
C4735      C4736   1.385       .  A
C4735      N4742   1.432       .  S
C4736      C4737   1.402   1_554  A
C4736      H4741   1.079       .  S
C4737      C5418   1.407       .  A
C4738      C5417   1.407       .  A
C4738      N4739   1.427       .  S
N4739      O5423   1.262       .  A
N4739      O4744   1.262       .  A
N4742      O4745   1.259       .  A
N4742      O5426   1.262       .  A
O4743      N5419   1.262       .  A
O4746      N5422   1.262       .  A
C4747      C5428   1.417       .  A
C4747      C4752   1.414       .  A
C4747      H4754   1.082       .  S
C4748      C5427   1.417       .  A
C4748      C4749   1.410       .  A
C4749      C4750   1.400       .  A
C4749      N4756   1.437       .  S
C4750      C4751   1.407       .  A
C4750      H4755   1.076       .  S
C4751      C5432   1.412       .  A
C4752      C5431   1.412       .  A
C4752      N4753   1.444       .  S
N4753      O4757   1.263       .  A
N4753      O5438   1.262       .  A
N4756      O5439   1.263       .  A
N4756      O4760   1.262       .  A
O4758      N5433   1.262       .  A
O4759      N5436   1.263       .  A
O4761     Co4781   2.015       .  S
O4762     Co4782   2.028       .  S
O4763     Co4783   1.987       .  S
O4763      C4771   1.273       .  A
O4764     Co4784   1.883       .  S
O4764      C4772   1.278       .  A
O4765     Co4782   1.989       .  S
O4765      C4771   1.276       .  A
O4766     Co4781   2.062       .  S
O4766      C4772   1.292       .  A
O4767     Co4784   1.983       .  S
O4768     Co4783   1.981       .  S
O4768      C4769   1.271   1_556  A
C4769      C5431   1.484       .  S
C4770      C5400   1.481       .  S
C4771      C5330   1.471       .  S
C4772      C5344   1.460       .  S
O4773     Co4781   1.900       .  S
O4773      C4786   1.269       .  A
O4774     Co4782   2.023       .  S
O4774      C4787   1.276       .  A
O4775     Co4783   1.982       .  S
O4776     Co4784   2.156       .  S
O4776      C4789   1.319       .  A
O4777     Co4782   1.852       .  S
O4778     Co4781   1.954       .  S
O4778      C4788   1.250       .  A
O4779     Co4784   2.115       .  S
O4779      C4786   1.307       .  A
O4780     Co4783   2.000       .  S
O4780      C4787   1.278       .  A
Co4781     O4785   1.945       .  S
Co4784     O4785   2.033       .  S
C4786      C5375   1.494       .  S
C4787      C5361   1.526       .  S
C4788      C5414   1.432       .  S
C4789      C5386   1.504       .  S
O4790     Co4810   1.986       .  S
O4790      C4798   1.269       .  A
O4791     Co4811   1.957       .  S
O4792     Co4812   1.973       .  S
O4792      C4800   1.272       .  A
O4793     Co4813   2.057       .  S
O4793      C4801   1.299       .  A
O4794     Co4811   2.013       .  S
O4794      C4800   1.283       .  A
O4795     Co4810   1.964       .  S
O4795      C4801   1.259       .  A
O4796     Co4813   2.066       .  S
O4796      C4799   1.280       .  A
O4797     Co4812   1.984       .  S
C4798      C5302   1.479       .  S
C4800      C5274   1.466       .  S
C4801      C5288   1.485       .  S
O4802     Co4810   1.889       .  S
O4802      C4815   1.266       .  A
O4803     Co4811   2.025       .  S
O4803      C4816   1.271       .  A
O4804     Co4812   1.972       .  S
O4805     Co4813   1.981       .  S
O4806     Co4811   1.986       .  S
O4806      C4818   1.294       .  A
O4807     Co4810   1.944       .  S
O4807      C4817   1.256       .  A
O4808     Co4813   2.146       .  S
O4808      C4815   1.310       .  A
O4809     Co4812   2.010       .  S
O4809      C4816   1.268       .  A
Co4810     O4814   1.891       .  S
Co4813     O4814   2.044       .  S
C4815      C5260   1.500       .  S
C4816      C5246   1.505       .  S
C4817      C5417   1.452       .  S
O4819     Co4839   1.988       .  S
O4820     Co4840   1.994       .  S
O4820      C4828   1.266       .  A
O4821     Co4841   1.997       .  S
O4821      C4829   1.282       .  A
O4822     Co4842   2.003       .  S
O4822      C4830   1.270       .  A
O4823     Co4840   2.133       .  S
O4823      C4829   1.320       .  A
O4824     Co4839   2.007       .  S
O4824      C4830   1.267       .  A
O4825     Co4842   1.992       .  S
O4826     Co4841   1.988       .  S
O4826      C4827   1.276   1_556  A
C4827      C5428   1.496       .  S
C4828      C5221   1.457       .  S
C4829      C5162   1.518       .  S
C4830      C5179   1.500       .  S
O4831     Co4839   1.875       .  S
O4831      C4844   1.273       .  A
O4832     Co4840   1.992       .  S
O4832      C4845   1.258       .  A
O4833     Co4841   1.997       .  S
O4833      C4846   1.268   1_556  A
O4834     Co4842   1.972       .  S
O4835     Co4840   1.985       .  S
O4835      C4847   1.291   1_556  A
O4836     Co4839   1.986       .  S
O4837     Co4842   2.133       .  S
O4837      C4844   1.314       .  A
O4838     Co4841   1.985       .  S
O4838      C4845   1.264       .  A
Co4840     O4843   1.983   1_556  S
Co4841     O4843   2.050   1_556  S
C4844      C5207   1.483       .  S
C4845      C5190   1.485       .  S
C4846      C5232   1.474       .  S
C4847      C5305   1.487       .  S
O4848     Co4868   1.979       .  S
O4849     Co4869   1.972       .  S
O4850     Co4870   2.111       .  S
O4850      C4858   1.306       .  A
O4851     Co4871   2.025       .  S
O4851      C4859   1.286       .  A
O4852     Co4869   1.919       .  S
O4852      C4858   1.273       .  A
O4853     Co4868   1.987       .  S
O4853      C4859   1.276       .  A
O4854     Co4871   2.002       .  S
O4854      C4857   1.249       .  A
O4855     Co4870   1.995       .  S
O4855      C4856   1.268       .  A
C4857      C5218   1.455       .  S
C4858      C5137   1.506       .  S
C4859      C5148   1.478       .  S
O4860     Co4868   2.008       .  S
O4860      C4873   1.269       .  A
O4861     Co4869   2.113       .  S
O4861      C4874   1.303       .  A
O4862     Co4870   1.986       .  S
O4863     Co4871   1.871       .  S
O4863      C4876   1.286       .  A
O4864     Co4869   2.137       .  S
O4865     Co4868   2.015       .  S
O4865      C4875   1.272   1_655  A
O4866     Co4871   2.002       .  S
O4866      C4873   1.272       .  A
O4867     Co4870   1.898       .  S
O4867      C4874   1.260       .  A
Co4868     O4872   2.018       .  S
Co4871     O4872   1.900       .  S
C4873      C5120   1.492       .  S
C4874      C5109   1.483       .  S
C4876      C5319   1.500       .  S
O4877     Co4897   2.103       .  S
O4877      C4885   1.294       .  A
O4878     Co4898   2.131       .  S
O4878      C4886   1.284       .  A
O4879     Co4899   1.997       .  S
O4879      C4887   1.277       .  A
O4880     Co4900   1.948       .  S
O4880      C4888   1.253       .  A
O4881     Co4898   1.988       .  S
O4881      C4887   1.265       .  A
O4882     Co4897   2.000       .  S
O4882      C4888   1.259       .  A
O4883     Co4900   1.924       .  S
O4883      C4886   1.236       .  A
O4884     Co4899   1.929       .  S
O4884      C4885   1.278       .  A
C4885      C5263   1.506       .  S
C4886      C5249   1.515       .  S
C4887      C5064   1.499       .  S
C4888      C5078   1.463       .  S
O4889     Co4897   1.967       .  S
O4889      C4902   1.271       .  A
O4890     Co4898   1.964       .  S
O4890      C4903   1.253       .  A
O4891     Co4899   2.120       .  S
O4891      C4904   1.294       .  A
O4892     Co4900   2.112       .  S
O4892      C4905   1.279       .  A
O4893     Co4898   1.945       .  S
O4893      C4905   1.239       .  A
O4894     Co4897   1.915       .  S
O4894      C4904   1.267       .  A
O4895     Co4900   1.998       .  S
O4895      C4902   1.274       .  A
O4896     Co4899   2.011       .  S
O4896      C4903   1.272       .  A
Co4897     O4901   2.004       .  S
Co4898     O4901   2.007       .  S
Co4899     O4901   2.032       .  S
Co4900     O4901   2.030       .  S
C4903      C5092   1.474       .  S
C4904      C5372   1.487       .  S
C4905      C5358   1.515       .  S
O4906     Co4926   2.038       .  S
O4906      C4914   1.283       .  A
O4907     Co4927   2.067       .  S
O4907      C4915   1.266       .  A
O4908     Co4928   2.006       .  S
O4908      C4916   1.276       .  A
O4909     Co4929   1.940       .  S
O4909      C4917   1.244       .  A
O4910     Co4927   2.036       .  S
O4910      C4916   1.276       .  A
O4911     Co4926   2.011       .  S
O4911      C4917   1.261       .  A
O4912     Co4929   1.944       .  S
O4912      C4915   1.239       .  A
O4913     Co4928   1.956       .  S
O4913      C4914   1.283       .  A
C4914      C5291   1.496       .  S
C4915      C5277   1.491       .  S
C4916      C5022   1.511       .  S
C4917      C5081   1.460       .  S
O4918     Co4926   1.962       .  S
O4918      C4931   1.267       .  A
O4919      C4932   1.247       .  A
O4920     Co4928   2.034       .  S
O4920      C4933   1.286       .  A
O4921     Co4929   2.059       .  S
O4921      C4934   1.270       .  A
O4922     Co4927   1.954       .  S
O4922      C4934   1.243       .  A
O4923     Co4926   1.993       .  S
O4923      C4933   1.271       .  A
O4924     Co4929   2.040       .  S
O4924      C4931   1.281       .  A
O4925      C4932   1.315       .  A
Co4926     O4930   2.130       .  S
Co4927     O4930   2.063       .  S
Co4928     O4930   1.935       .  S
Co4929     O4930   2.031       .  S
C4931      C5039   1.500       .  S
C4932      C5095   1.465       .  S
C4933      C5347   1.485       .  S
C4934      C5333   1.474       .  S
O4935     Co4955   2.100       .  S
O4935      C4943   1.288       .  A
O4936     Co4956   2.035       .  S
O4936      C4944   1.265       .  A
O4937     Co4957   2.013       .  S
O4937      C4945   1.266       .  A
O4938      C4946   1.243   1_455  A
O4939     Co4956   1.980       .  S
O4939      C4945   1.259       .  A
O4940      C4946   1.275   1_455  A
O4941     Co4958   1.957       .  S
O4941      C4944   1.242       .  A
O4942     Co4957   1.934       .  S
O4942      C4943   1.263       .  A
C4943      C5123   1.501       .  S
C4944      C5106   1.485       .  S
C4945      C5067   1.485       .  S
C4946      C4994   1.467       .  S
O4947     Co4955   1.994       .  S
O4947      C4960   1.274       .  A
O4948     Co4956   1.924       .  S
O4948      C4961   1.247       .  A
O4949     Co4957   2.138       .  S
O4949      C4962   1.315       .  A
O4950     Co4958   2.088       .  S
O4950      C4963   1.281       .  A
O4951     Co4956   1.942       .  S
O4951      C4963   1.243       .  A
O4952     Co4955   1.929       .  S
O4952      C4962   1.276       .  A
O4953     Co4958   2.025       .  S
O4953      C4960   1.274       .  A
O4954     Co4957   2.039       .  S
O4954      C4961   1.289       .  A
Co4955     O4959   2.064       .  S
Co4956     O4959   2.047       .  S
Co4957     O4959   2.003       .  S
Co4958     O4959   2.026       .  S
C4960      C5025   1.502       .  S
C4961      C5011   1.455       .  S
C4962      C5204   1.494       .  S
C4963      C5193   1.495       .  S
O4964     Co4984   1.946       .  S
O4964      C4972   1.244       .  A
O4965     Co4985   1.957       .  S
O4965      C4973   1.274       .  A
O4966     Co4986   2.029       .  S
O4966      C4974   1.279       .  A
O4967     Co4987   2.045       .  S
O4967      C4975   1.276       .  A
O4968     Co4985   1.957       .  S
O4968      C4974   1.268       .  A
O4969     Co4984   1.925       .  S
O4969      C4975   1.241       .  A
O4970     Co4987   2.066       .  S
O4970      C4973   1.276       .  A
O4971     Co4986   2.069       .  S
O4971      C4972   1.272       .  A
C4972      C5151   1.502       .  S
C4973      C5134   1.491       .  S
C4974      C5053   1.486       .  S
C4975      C4997   1.468       .  S
O4976     Co4984   2.023       .  S
O4976      C4989   1.282       .  A
O4977     Co4985   2.048       .  S
O4977      C4990   1.268       .  A
O4978     Co4986   1.949       .  S
O4978      C4991   1.251       .  A
O4979     Co4987   1.974       .  S
O4979      C4992   1.284       .  A
O4980     Co4985   2.065       .  S
O4980      C4992   1.284       .  A
O4981     Co4984   2.068       .  S
O4981      C4991   1.282       .  A
O4982     Co4987   1.972       .  S
O4982      C4989   1.275       .  A
O4983     Co4986   1.923       .  S
O4983      C4990   1.241       .  A
Co4984     O4988   1.968       .  S
Co4985     O4988   2.031       .  S
Co4986     O4988   2.011       .  S
Co4987     O4988   2.040       .  S
C4989      C5036   1.500       .  S
C4990      C5008   1.480       .  S
C4991      C5176   1.491       .  S
C4992      C5165   1.525       .  S
C4993      C4994   1.392       .  A
C4993      C4998   1.399       .  A
C4993      H5000   1.084       .  S
C4994      C4995   1.426       .  A
C4995      C4996   1.398       .  A
C4995      N5002   1.444       .  S
C4996      C4997   1.393       .  A
C4996      H5001   1.084       .  S
C4997      C4998   1.428       .  A
C4998      N4999   1.440       .  S
N4999      O5003   1.263       .  A
N4999      O5004   1.261       .  A
N5002      O5005   1.262       .  A
N5002      O5006   1.262       .  A
C5007      C5008   1.402       .  A
C5007      C5012   1.411       .  A
C5007      H5014   1.083       .  S
C5008      C5009   1.422       .  A
C5009      C5010   1.390       .  A
C5009      N5016   1.433       .  S
C5010      C5011   1.383       .  A
C5010      H5015   1.084       .  S
C5011      C5012   1.419       .  A
C5012      N5013   1.442       .  S
N5013      O5017   1.263       .  A
N5013      O5018   1.262       .  A
N5016      O5019   1.264       .  A
N5016      O5020   1.259       .  A
C5021      C5022   1.407       .  A
C5021      H5028   1.084       .  S
C5023      C5024   1.417       .  A
C5023      N5030   1.433       .  S
C5024      H5029   1.084       .  S
N5027      O5031   1.262   1_455  A
N5030      O5034   1.263       .  A
C5035      C5036   1.410       .  A
C5035      C5040   1.403       .  A
C5035      H5042   1.083       .  S
C5036      C5037   1.417       .  A
C5037      C5038   1.410       .  A
C5037      N5044   1.435       .  S
C5038      C5039   1.410       .  A
C5038      H5043   1.083       .  S
C5039      C5040   1.418       .  A
C5040      N5041   1.437       .  S
N5041      O5045   1.263       .  A
N5041      O5046   1.263       .  A
N5044      O5047   1.263       .  A
N5044      O5048   1.262       .  A
C5049      C5050   1.406       .  A
C5049      C5054   1.404   1_545  A
C5049      H5056   1.083       .  S
C5050      C5051   1.417       .  A
C5051      C5052   1.399   1_545  A
C5052      C5053   1.406       .  A
C5052      H5057   1.083       .  S
C5053      C5054   1.418       .  A
C5054      N5055   1.438       .  S
N5055      O5059   1.262       .  A
N5055      O5060   1.262       .  A
N5058      O5061   1.263       .  A
N5058      O5062   1.263       .  A
C5063      C5064   1.404       .  A
C5063      C5068   1.408       .  A
C5063      H5070   1.083       .  S
C5064      C5065   1.431       .  A
C5065      C5066   1.401       .  A
C5065      N5072   1.434       .  S
C5066      C5067   1.394       .  A
C5066      H5071   1.085       .  S
C5067      C5068   1.409       .  A
C5068      N5069   1.424       .  S
N5069      O5073   1.260       .  A
N5069      O5074   1.262       .  A
N5072      O5075   1.263       .  A
N5072      O5076   1.262       .  A
C5077      C5078   1.405       .  A
C5077      C5082   1.388       .  A
C5077      H5084   1.085       .  S
C5078      C5079   1.408       .  A
C5079      C5080   1.400       .  A
C5079      N5086   1.437       .  S
C5080      C5081   1.407       .  A
C5080      H5085   1.084       .  S
C5081      C5082   1.404       .  A
C5082      N5083   1.431       .  S
N5083      O5087   1.262       .  A
N5083      O5088   1.260       .  A
N5086      O5089   1.262       .  A
N5086      O5090   1.263       .  A
C5091      C5092   1.398       .  A
C5091      C5096   1.396       .  A
C5091      H5098   1.084       .  S
C5092      C5093   1.423       .  A
C5093      C5094   1.396       .  A
C5093      N5100   1.435       .  S
C5094      C5095   1.394       .  A
C5094      H5099   1.085       .  S
C5095      C5096   1.422       .  A
C5096      N5097   1.440       .  S
N5097      O5101   1.263       .  A
N5097      O5102   1.261       .  A
N5100      O5103   1.262       .  A
N5100      O5104   1.262       .  A
C5105      C5106   1.396       .  A
C5105      C5110   1.399       .  A
C5105      H5112   1.084       .  S
C5107      C5108   1.413   1_455  A
C5107      N5114   1.442   1_455  S
C5108      C5109   1.403       .  A
C5108      H5113   1.084       .  S
C5110      N5111   1.443       .  S
N5111      O5115   1.262       .  A
N5114      O5117   1.263   1_655  A
N5114      O5118   1.263       .  A
C5119      C5124   1.419       .  A
C5119      H5126   1.078       .  S
C5120      C5121   1.411       .  A
C5121      C5122   1.406       .  A
C5121      N5128   1.442       .  S
C5122      H5127   1.079       .  S
C5123      C5124   1.430       .  A
C5124      N5125   1.448       .  S
N5125      O5129   1.263       .  A
N5125      O5130   1.260       .  A
N5128      O5131   1.262       .  A
N5128      O5132   1.263       .  A
C5133      C5134   1.394       .  A
C5133      C5138   1.405       .  A
C5133      H5140   1.080       .  S
C5134      C5135   1.421       .  A
C5135      C5136   1.423       .  A
C5135      N5142   1.441       .  S
C5136      C5137   1.408       .  A
C5136      H5141   1.083       .  S
C5137      C5138   1.425       .  A
C5138      N5139   1.437       .  S
N5139      O5143   1.261       .  A
N5139      O5144   1.261       .  A
N5142      O5145   1.263       .  A
N5142      O5146   1.263       .  A
C5147      C5148   1.408       .  A
C5147      C5152   1.420       .  A
C5147      H5154   1.083       .  S
C5148      C5149   1.406       .  A
C5149      C5150   1.397       .  A
C5149      N5156   1.443       .  S
C5150      C5151   1.415       .  A
C5150      H5155   1.083       .  S
C5151      C5152   1.421       .  A
C5152      N5153   1.445       .  S
N5153      O5157   1.261       .  A
N5153      O5158   1.263       .  A
N5156      O5159   1.263       .  A
N5156      O5160   1.262       .  A
C5161      C5162   1.396       .  A
C5161      C5166   1.395       .  A
C5161      H5168   1.084       .  S
C5162      C5163   1.440       .  A
C5163      C5164   1.438       .  A
C5163      N5170   1.447       .  S
C5164      C5165   1.411       .  A
C5164      H5169   1.082       .  S
C5165      C5166   1.423       .  A
C5166      N5167   1.427       .  S
N5167      O5171   1.261       .  A
N5167      O5172   1.262       .  A
N5170      O5173   1.260       .  A
N5170      O5174   1.263       .  A
C5175      C5176   1.397       .  A
C5175      C5180   1.404       .  A
C5175      H5182   1.083       .  S
C5176      C5177   1.424       .  A
C5177      C5178   1.419       .  A
C5177      N5184   1.444       .  S
C5178      C5179   1.403       .  A
C5178      H5183   1.083       .  S
C5179      C5180   1.411       .  A
C5180      N5181   1.426       .  S
N5181      O5185   1.261       .  A
N5181      O5186   1.260       .  A
N5184      O5187   1.263       .  A
N5184      O5188   1.263       .  A
C5189      C5190   1.390       .  A
C5189      C5194   1.384       .  A
C5189      H5196   1.084       .  S
C5190      C5191   1.420       .  A
C5191      C5192   1.421       .  A
C5191      N5198   1.432       .  S
C5192      C5193   1.406       .  A
C5192      H5197   1.083       .  S
C5193      C5194   1.424       .  A
C5194      N5195   1.429       .  S
N5195      O5199   1.262       .  A
N5195      O5200   1.262       .  A
N5198      O5201   1.262       .  A
N5198      O5202   1.263       .  A
C5203      C5204   1.410       .  A
C5203      C5208   1.412       .  A
C5203      H5210   1.078       .  S
C5204      C5205   1.411       .  A
C5205      C5206   1.412       .  A
C5205      N5212   1.439       .  S
C5206      C5207   1.406       .  A
C5206      H5211   1.076       .  S
C5207      C5208   1.407       .  A
C5208      N5209   1.442       .  S
N5209      O5213   1.261       .  A
N5209      O5214   1.263       .  A
N5212      O5215   1.262       .  A
N5212      O5216   1.261       .  A
C5217      C5222   1.399       .  A
C5217      H5224   1.084       .  S
C5218      C5219   1.411       .  A
C5219      C5220   1.392       .  A
C5219      N5226   1.433       .  S
C5220      H5225   1.080       .  S
C5221      C5222   1.407       .  A
C5222      N5223   1.432       .  S
N5223      O5227   1.262       .  A
N5223      O5228   1.262       .  A
N5226      O5229   1.261       .  A
N5226      O5230   1.262       .  A
C5231      C5232   1.400   1_556  A
C5231      C5236   1.393       .  A
C5231      H5238   1.084       .  S
C5233      C5234   1.405       .  A
C5233      N5240   1.446       .  S
C5234      C5235   1.401       .  A
C5234      H5239   1.084       .  S
C5236      N5237   1.437       .  S
N5237      O5241   1.263       .  A
N5240      O5244   1.263       .  A
C5245      C5246   1.397       .  A
C5245      C5250   1.406       .  A
C5245      H5252   1.084       .  S
C5246      C5247   1.422       .  A
C5247      C5248   1.425       .  A
C5247      N5254   1.434       .  S
C5248      C5249   1.404       .  A
C5248      H5253   1.083       .  S
C5249      C5250   1.431       .  A
C5250      N5251   1.439       .  S
N5251      O5255   1.263       .  A
N5251      O5256   1.263       .  A
N5254      O5257   1.263       .  A
N5254      O5258   1.262       .  A
C5259      C5260   1.412       .  A
C5259      C5264   1.419       .  A
C5259      H5266   1.076       .  S
C5260      C5261   1.405       .  A
C5261      C5262   1.404       .  A
C5261      N5268   1.430       .  S
C5262      C5263   1.407       .  A
C5262      H5267   1.074       .  S
C5263      C5264   1.413       .  A
C5264      N5265   1.430       .  S
N5265      O5269   1.262       .  A
N5265      O5270   1.262       .  A
N5268      O5271   1.261       .  A
N5268      O5272   1.262       .  A
C5273      C5274   1.405       .  A
C5273      C5278   1.412       .  A
C5273      H5280   1.083       .  S
C5274      C5275   1.406       .  A
C5275      C5276   1.395       .  A
C5275      N5282   1.442       .  S
C5276      C5277   1.413       .  A
C5276      H5281   1.083       .  S
C5277      C5278   1.417       .  A
C5278      N5279   1.441       .  S
N5279      O5283   1.262       .  A
N5279      O5284   1.261       .  A
N5282      O5285   1.263       .  A
N5282      O5286   1.262       .  A
C5287      C5288   1.389       .  A
C5287      C5292   1.376       .  A
C5287      H5294   1.083       .  S
C5288      C5289   1.421       .  A
C5289      C5290   1.424       .  A
C5289      N5296   1.439       .  S
C5290      C5291   1.411       .  A
C5290      H5295   1.083       .  S
C5291      C5292   1.424       .  A
C5292      N5293   1.433       .  S
N5293      O5297   1.261       .  A
N5293      O5298   1.260       .  A
N5296      O5299   1.263       .  A
N5296      O5300   1.263       .  A
C5301      C5306   1.402   1_545  A
C5301      H5308   1.084       .  S
C5303      N5310   1.440       .  S
C5304      C5305   1.405   1_556  A
C5306      N5307   1.430       .  S
N5307      O5311   1.260       .  A
N5307      O5312   1.262   1_565  A
N5310      O5313   1.262       .  A
N5310      O5314   1.262       .  A
C5315      C5320   1.415       .  A
C5315      H5322   1.083       .  S
C5316      C5317   1.417       .  A
C5317      C5318   1.397       .  A
C5317      N5324   1.431       .  S
C5318      C5319   1.406       .  A
C5318      H5323   1.083       .  S
C5320      N5321   1.437       .  S
N5321      O5325   1.263       .  A
N5324      O5328   1.262       .  A
C5329      C5334   1.418       .  A
C5329      H5336   1.083       .  S
C5330      C5331   1.406       .  A
C5331      C5332   1.378       .  A
C5331      N5338   1.435       .  S
C5332      H5337   1.082       .  S
C5333      C5334   1.416       .  A
C5334      N5335   1.445       .  S
N5335      O5339   1.263       .  A
N5335      O5340   1.262       .  A
N5338      O5341   1.262       .  A
N5338      O5342   1.262       .  A
C5343      C5348   1.418   1_455  A
C5343      H5350   1.083       .  S
C5344      C5345   1.388       .  A
C5345      C5346   1.373       .  A
C5345      N5352   1.435       .  S
C5346      H5351   1.076       .  S
C5347      C5348   1.423       .  A
C5348      N5349   1.440       .  S
N5349      O5353   1.263       .  A
N5349      O5354   1.260       .  A
N5352      O5355   1.262       .  A
N5352      O5356   1.262       .  A
C5357      C5358   1.413       .  A
C5357      C5362   1.440       .  A
C5357      H5364   1.083       .  S
C5358      C5359   1.416       .  A
C5359      C5360   1.384       .  A
C5359      N5366   1.427       .  S
C5360      C5361   1.400       .  A
C5360      H5365   1.083       .  S
C5361      C5362   1.441       .  A
C5362      N5363   1.446       .  S
N5363      O5367   1.263       .  A
N5363      O5368   1.260       .  A
N5366      O5369   1.261       .  A
N5366      O5370   1.262       .  A
C5371      C5372   1.400       .  A
C5371      C5376   1.408       .  A
C5371      H5378   1.084       .  S
C5372      C5373   1.419       .  A
C5373      C5374   1.418       .  A
C5373      N5380   1.443       .  S
C5374      C5375   1.403       .  A
C5374      H5379   1.083       .  S
C5375      C5376   1.414       .  A
C5376      N5377   1.435       .  S
N5377      O5381   1.263       .  A
N5377      O5382   1.261       .  A
N5380      O5383   1.263       .  A
N5380      O5384   1.262       .  A
C5385      H5392   1.083       .  S
C5387      C5388   1.413       .  A
C5387      N5394   1.436       .  S
C5388      H5393   1.083       .  S
C5390      N5391   1.438       .  S
N5394      O5398   1.262   1_655  A
C5399      C5400   1.397   1_556  A
C5399      C5404   1.396       .  A
C5399      H5406   1.082       .  S
C5401      C5402   1.411       .  A
C5401      N5408   1.441       .  S
C5402      H5407   1.079       .  S
C5403      C5404   1.415   1_554  A
C5404      N5405   1.435       .  S
N5405      O5409   1.260       .  A
N5405      O5410   1.261       .  A
N5408      O5411   1.261       .  A
N5408      O5412   1.263       .  A
C5413      C5418   1.382       .  A
C5413      H5420   1.064       .  S
C5414      C5415   1.403       .  A
C5415      C5416   1.385       .  A
C5415      N5422   1.432       .  S
C5416      C5417   1.402       .  A
C5416      H5421   1.079       .  S
C5418      N5419   1.427       .  S
N5419      O5424   1.262       .  A
N5422      O5425   1.259       .  A
C5427      C5432   1.414       .  A
C5427      H5434   1.082       .  S
C5428      C5429   1.410   1_554  A
C5429      C5430   1.400       .  A
C5429      N5436   1.437       .  S
C5430      C5431   1.407   1_556  A
C5430      H5435   1.076       .  S
C5432      N5433   1.444       .  S
N5433      O5437   1.263       .  A
N5436      O5440   1.262       .  A
