geometry optimzed in LAMMPS
_audit_creation_date              2020-11-30 
_audit_creation_method            'lammps2cif' 
_symmetry_space_group_name_H-M    'P1' 
_symmetry_Int_Tables_number       1 
_symmetry_cell_setting            triclinic 
loop_ 
_symmetry_equiv_pos_as_xyz 
  x,y,z 
_cell_length_a                    18.24963806 
_cell_length_b                    28.25378503640868 
_cell_length_c                    23.8214421718349 
_cell_angle_alpha                 92.8264297908732 
_cell_angle_beta                  89.17692680677399 
_cell_angle_gamma                 88.2920108161265 
loop_ 
_atom_site_label 
_atom_site_type_symbol 
_atom_site_fract_x 
_atom_site_fract_y 
_atom_site_fract_z 
_atom_site_charge 
C1          C  0.10367144  0.01099405  0.26958057     0.31000
C2          C  0.44727122  0.01215487  0.26695687     0.31000
C3          C  0.06575205  0.97457626  0.30633887    -0.05200
C4          C  0.06179186  0.05685866  0.29095780    -0.06000
C5          C  0.06509851  0.00163707  0.21174379    -0.05900
C6          C  0.48879824  0.98041662  0.30967472    -0.05200
C7          C  0.48359914  0.05998923  0.28160454    -0.06000
C8          C  0.49079418  0.99480742  0.21269772    -0.05900
C9          C  0.46996423  0.96237914  0.36094820    -0.31300
N10         N  0.02966355  0.95272559  0.39151898     0.15200
C11         C  0.08837548  0.95907385  0.35767292    -0.31300
H12         H  0.14425474  0.95827526  0.37160061     0.17200
C13         C  0.45851455  0.10433793  0.30035536    -0.30200
N14         N  0.51674498  0.13173446  0.31390511     0.14000
C15         C  0.08139468  0.10192345  0.30702947    -0.30200
C16         C  0.48466805  0.94991862  0.18837209    -0.30500
N17         N  0.54599095  0.93375539  0.16149778     0.14500
H18         H  0.44927599  0.92480156  0.20622116     0.17100
C19         C  0.08478239  0.97092750  0.16640188    -0.30500
H20         H  0.13948683  0.95962713  0.15386189     0.17100
H21         H  0.13707936  0.11323287  0.31136579     0.17100
H22         H  0.41484929  0.95972290  0.37709253     0.17200
H23         H  0.40145179  0.11570418  0.30267278     0.17100
C24         C  0.19558753  0.01209029  0.26982574     0.31000
C25         C  0.35317701  0.01364891  0.26393371     0.31000
C26         C  0.23628679  0.02601347  0.32504369    -0.05200
C27         C  0.23760183  0.96411887  0.25345582    -0.06000
C28         C  0.23168375  0.04742958  0.22910675    -0.05900
C29         C  0.31387968  0.02627539  0.32232653    -0.05200
C30         C  0.31421887  0.96659117  0.24340814    -0.06000
C31         C  0.30942922  0.04895101  0.22656630    -0.05900
C32         C  0.33659842  0.03821691  0.37675675    -0.31300
N33         N  0.27742728  0.04275550  0.41251128     0.15200
C34         C  0.21618936  0.03703137  0.38083193    -0.31300
H35         H  0.16065912  0.03883471  0.39727181     0.17200
C36         C  0.32147643  0.93813270  0.19330024    -0.30200
N37         N  0.26517558  0.90828600  0.18529315     0.14000
C38         C  0.21395578  0.92370948  0.22435476    -0.30200
C39         C  0.32535308  0.08354938  0.18857332    -0.30500
N40         N  0.26185428  0.10346471  0.16821573     0.14500
H41         H  0.38016146  0.09300204  0.17659545     0.17100
C42         C  0.20513588  0.08133912  0.19346058    -0.30500
H43         H  0.14767462  0.08986505  0.18833757     0.17100
H44         H  0.15904907  0.91086914  0.22621547     0.17100
H45         H  0.39268163  0.04208558  0.38959725     0.17200
H46         H  0.35796144  0.94574754  0.15966080     0.17100
C47         C  0.11388048  0.98463270  0.59468920     0.31000
C48         C  0.95557529  0.98695494  0.59665916     0.31000
C49         C  0.07342616  0.97177093  0.53862941    -0.05200
C50         C  0.07457379  0.95114534  0.63437823    -0.06000
C51         C  0.07333397  0.03309965  0.61380597    -0.05900
C52         C  0.99586970  0.97319468  0.54006054    -0.05200
C53         C  0.99671106  0.95156967  0.63557157    -0.06000
C54         C  0.99516405  0.03462388  0.61493952    -0.05900
C55         C  0.97298682  0.96078080  0.48632059    -0.31300
N56         N  0.03217640  0.95381540  0.45140880     0.15200
C57         C  0.09355823  0.95868540  0.48326175    -0.31300
H58         H  0.14918728  0.95487947  0.46717289     0.17200
C59         C  0.97778187  0.91710374  0.67284440    -0.30200
N60         N  0.03993224  0.89636055  0.69372608     0.14000
C61         C  0.09840943  0.91791280  0.67100086    -0.30200
C62         C  0.97520064  0.07692472  0.64606936    -0.30500
N63         N  0.03562275  0.10020559  0.66481637     0.14500
H64         H  0.41630333  0.08243722  0.65789375     0.17100
C65         C  0.09477233  0.07412456  0.64375966    -0.30500
H66         H  0.15016961  0.08323810  0.65212639     0.17100
H67         H  0.15512859  0.91055355  0.68068213     0.17100
H68         H  0.41785772  0.95478325  0.47215007     0.17200
H69         H  0.42363059  0.90442024  0.68185713     0.17100
C70         C  0.20649768  0.98215469  0.59350503     0.31000
C71         C  0.36351824  0.98339759  0.59290518     0.31000
C72         C  0.24363098  0.02031961  0.55816453    -0.05200
C73         C  0.24537041  0.98849985  0.65089153    -0.06000
C74         C  0.24956038  0.93628421  0.56960732    -0.05900
C75         C  0.32224013  0.02091360  0.55718179    -0.05200
C76         C  0.32289974  0.98815408  0.65039890    -0.06000
C77         C  0.32779193  0.93808984  0.56860456    -0.05900
C78         C  0.34073346  0.03567186  0.50362216    -0.31300
N79         N  0.27967752  0.04313962  0.47260753     0.15200
C80         C  0.22117104  0.03575019  0.50644237    -0.31300
H81         H  0.16541662  0.03624721  0.49237236     0.17200
C82         C  0.34322581  0.00953831  0.70049922    -0.30200
N83         N  0.28345218  0.03074764  0.72629432     0.14000
C84         C  0.22402926  0.01179933  0.70093358    -0.30200
C85         C  0.35504148  0.89265991  0.56742063    -0.30500
N86         N  0.29971388  0.86172891  0.56985913     0.14500
H87         H  0.41246364  0.88419750  0.57187273     0.17100
C88         C  0.23550720  0.88831274  0.57212320    -0.30500
H89         H  0.18195536  0.87520763  0.58081431     0.17100
H90         H  0.16856511  0.02354397  0.71148981     0.17100
H91         H  0.39569802  0.03589016  0.48654829     0.17200
H92         H  0.39847142  0.01926601  0.71028426     0.17100
O93         O  0.36536434  0.50506697  0.98546453    -0.79900
O94         O  0.15447578  0.51980513  0.99055186    -0.64600
O95         O  0.50589412  0.50757581  0.98145159    -1.11200
C96         C  0.01628409  0.39975216  0.12336943     1.07000
O97         O  0.16580079  0.44254424  0.98387660    -0.77800
O98         O  0.08807674  0.37137366  0.01757179    -0.65400
Ni99       Ni  0.42866588  0.54622074  0.95445266     1.34900
C100        C  0.05113376  0.37627350  0.97351631     0.85700
O101        O  0.07879343  0.60449174  0.99107971    -0.78300
O102        O  0.49388196  0.58606230  0.91853016    -0.88600
C103        C  0.15239880  0.48146256  0.96214433     0.85300
O104        O  0.41767309  0.59269886  0.01520364    -0.66800
O105        O  0.08509732  0.40834868  0.12220962    -0.86100
C106        C  0.94926220  0.60335528  0.06615716     0.86100
C107        C  0.04205617  0.61979940  0.94916599     1.07700
H108        H  0.05376548  0.48873748  0.10419867     0.39500
O109        O  0.06472315  0.48171252  0.06481017    -1.08800
O110        O  0.52626044  0.41048500  0.96878414    -0.65400
Ni111      Ni  0.48650843  0.45429613  0.02990305     1.26300
O112        O  0.99772698  0.57325650  0.08081377    -0.65700
O113        O  0.48002850  0.40539802  0.08553519    -0.77900
C114        C  0.37962164  0.46447053  0.96267535     0.85500
O115        O  0.39846464  0.43368319  0.99570976    -0.65100
Ni116      Ni  0.13202524  0.42692714  0.05615884     1.27400
Ni117      Ni  0.07292859  0.54448596  0.03173561     1.26100
H118        H  0.52716201  0.49438600  0.94754554     0.40000
O119        O  0.42757891  0.49406132  0.87573530    -0.79900
O120        O  0.13976090  0.52335017  0.88298478    -0.64600
O121        O  0.28846245  0.51090760  0.87946615    -1.11200
C122        C  0.26283704  0.37588519  0.75054889     1.07000
O123        O  0.10820239  0.44932768  0.87633076    -0.77800
O124        O  0.18550185  0.37049424  0.84911880    -0.65400
Ni125      Ni  0.37188459  0.54866426  0.89404504     1.34900
C126        C  0.22613212  0.37515491  0.89144868     0.85700
O127        O  0.21314218  0.60258042  0.87022848    -0.78300
O128        O  0.31736475  0.60391975  0.91891574    -0.88600
C129        C  0.13698520  0.48350248  0.90327902     0.85300
O130        O  0.38489794  0.57314424  0.82086852    -0.66800
O131        O  0.19786680  0.39343224  0.74379253    -0.86100
C132        C  0.34337786  0.57397408  0.77846708     0.86100
C133        C  0.25612517  0.62236196  0.90651275     1.07700
H134        H  0.23075454  0.47417681  0.76243437     0.39500
O135        O  0.21899977  0.47157792  0.80181466    -1.08800
O136        O  0.25813581  0.41437550  0.89841491    -0.65400
Ni137      Ni  0.30217622  0.44865071  0.83689578     1.26300
O138        O  0.28171142  0.55472420  0.77700260    -0.65700
O139        O  0.30675204  0.39217280  0.78819666    -0.77900
C140        C  0.40894314  0.45904068  0.90326920     0.85500
O141        O  0.38713742  0.42532797  0.87361668    -0.65100
Ni142      Ni  0.14721910  0.42336541  0.80682953     1.27400
Ni143      Ni  0.21412385  0.53757363  0.83338032     1.26100
H144        H  0.26793321  0.50626236  0.91588502     0.40000
C145        C  0.32044477  0.63607668  0.64364225    -0.27200
C146        C  0.35369615  0.67904854  0.65779012     0.06400
C147        C  0.39570627  0.68283817  0.70679883     0.26000
C148        C  0.39974898  0.64546973  0.74294552    -0.11700
C149        C  0.36155627  0.60385675  0.73129110    -0.25700
C150        C  0.32472000  0.59855404  0.67976801     0.36800
C151        C  0.33919192  0.72135807  0.62486224     0.06400
F152        F  0.42679233  0.72435227  0.72262971    -0.19500
H153        H  0.42645951  0.65110713  0.78287223     0.16200
F154        F  0.28825676  0.55846495  0.66629290    -0.23200
H155        H  0.28853779  0.63233937  0.60577158     0.18000
C156        C  0.39718169  0.74798865  0.60612688     0.26000
C157        C  0.38340557  0.79213327  0.58422436    -0.11700
C158        C  0.31122218  0.81173971  0.58128733    -0.25700
C159        C  0.25280856  0.78187460  0.59366936     0.36900
C160        C  0.26697939  0.73755163  0.61603565    -0.27300
F161        F  0.46761645  0.73180811  0.61038583    -0.19500
H162        H  0.43075981  0.81082706  0.57105260     0.16200
F163        F  0.18204245  0.79476918  0.58478765    -0.23200
H164        H  0.22125966  0.71666277  0.62860686     0.18000
C165        C  0.30298434  0.15720016  0.77916142    -0.27200
C166        C  0.29745119  0.17958396  0.72776869     0.06400
C167        C  0.28858489  0.15295805  0.67790872     0.26000
C168        C  0.28151922  0.10490861  0.67931552    -0.11700
C169        C  0.28500055  0.08151379  0.72999154    -0.25700
C170        C  0.29769786  0.10773301  0.78021426     0.36800
C171        C  0.29369830  0.23086422  0.72513623     0.06400
F172        F  0.28593297  0.17367633  0.62766929    -0.19500
H173        H  0.27560924  0.08530564  0.63984578     0.16200
F174        F  0.30507160  0.08580004  0.82927141    -0.23200
H175        H  0.31006863  0.17801871  0.81800292     0.18000
C176        C  0.22965704  0.25269760  0.70548456     0.26000
C177        C  0.22412740  0.30160776  0.70426692    -0.11700
C178        C  0.28168842  0.32918192  0.72427467    -0.25700
C179        C  0.34922260  0.30686535  0.73670370     0.36900
C180        C  0.35465819  0.25773869  0.73796182    -0.27300
F181        F  0.17088999  0.22676280  0.69071835    -0.19500
H182        H  0.17182906  0.31769227  0.69368432     0.16200
F183        F  0.40740191  0.33266753  0.75286328    -0.23200
H184        H  0.40538426  0.24080287  0.75018723     0.18000
C185        C  0.05671739  0.74743628  0.90536693    -0.27200
C186        C  0.06042614  0.74082840  0.84627150     0.06400
C187        C  0.06893116  0.69412982  0.82319195     0.26000
C188        C  0.06846587  0.65538763  0.85785569    -0.11700
C189        C  0.06308363  0.66158386  0.91683109    -0.25700
C190        C  0.05875407  0.70834366  0.94034568     0.36800
C191        C  0.05512425  0.78201059  0.80845409     0.06400
F192        F  0.07339538  0.68565565  0.76664709    -0.19500
H193        H  0.06952212  0.61993620  0.83824465     0.16200
F194        F  0.55741690  0.70527693  0.98811744    -0.23200
H195        H  0.55200309  0.77393759  0.91825855     0.18000
C196        C  0.99432708  0.81419071  0.81054447     0.26000
C197        C  0.98895673  0.85108412  0.77262856    -0.11700
C198        C  0.04450548  0.85745156  0.73209315    -0.25700
C199        C  0.10527086  0.82497013  0.73044758     0.36900
C200        C  0.10998217  0.78798243  0.76770463    -0.27300
F201        F  0.43637445  0.80147524  0.84107522    -0.19500
H202        H  0.44131665  0.87028567  0.77232722     0.16200
F203        F  0.16006225  0.82789979  0.69201645    -0.23200
H204        H  0.15719795  0.76376529  0.76472086     0.18000
C205        C  0.04549409  0.25000533  0.89809887    -0.27200
C206        C  0.03893833  0.25893472  0.84019963     0.06400
C207        C  0.03163283  0.30754911  0.82791122     0.26000
C208        C  0.03199003  0.34451844  0.87093095    -0.11700
C209        C  0.04330833  0.33560056  0.92821401    -0.25700
C210        C  0.04807197  0.28714966  0.94088013     0.36800
C211        C  0.03932651  0.21806829  0.79383475     0.06400
F212        F  0.02688058  0.32001430  0.77378516    -0.19500
H213        H  0.02597169  0.38067506  0.85861021     0.16200
F214        F  0.54920066  0.26933120  0.99733808    -0.23200
H215        H  0.54351600  0.20788787  0.91277722     0.18000
C216        C  0.08532742  0.17671376  0.79620823     0.26000
C217        C  0.08464925  0.13924729  0.75387369    -0.11700
C218        C  0.03740279  0.14036335  0.70732722    -0.25700
C219        C  0.99214635  0.18165487  0.70424021     0.36900
C220        C  0.99367191  0.21954836  0.74610208    -0.27300
F221        F  0.13295496  0.17258703  0.83893014    -0.19500
H222        H  0.12086232  0.10863138  0.75808822     0.16200
F223        F  0.94774775  0.18619932  0.65958948    -0.23200
H224        H  0.95785839  0.25010956  0.74112330     0.18000
C225        C  0.29420068  0.82932347  0.04975877    -0.27200
C226        C  0.24250773  0.79385490  0.05644286     0.06400
C227        C  0.19793677  0.79810355  0.10544120     0.26000
C228        C  0.20525085  0.83552524  0.14620625    -0.11700
C229        C  0.25719775  0.87097854  0.14029493    -0.25700
C230        C  0.30184775  0.86705718  0.09055050     0.36800
C231        C  0.23804561  0.75097766  0.01514997     0.06400
F232        F  0.14671520  0.76562014  0.11428201    -0.19500
H233        H  0.17082320  0.83584238  0.18351999     0.16200
F234        F  0.35327843  0.89918076  0.08011631    -0.23200
H235        H  0.33069792  0.82723311  0.01343359     0.18000
C236        C  0.24331485  0.75396278  0.95589367     0.26000
C237        C  0.24286097  0.71260293  0.91938371    -0.11700
C238        C  0.23630195  0.66722209  0.94072890    -0.25700
C239        C  0.22995784  0.66456334  0.99953955     0.36900
C240        C  0.23055631  0.70540080  0.03568428    -0.27300
F241        F  0.24946782  0.79672925  0.93303396    -0.19500
H242        H  0.25050925  0.71592470  0.87460049     0.16200
F243        F  0.22885683  0.62161722  0.02266424    -0.23200
H244        H  0.22932242  0.70072402  0.08049258     0.18000
C245        C  0.18786121  0.18871965  0.05911050    -0.27200
C246        C  0.24801119  0.21771615  0.04950727     0.06400
C247        C  0.31226450  0.20806971  0.07976307     0.26000
C248        C  0.31613688  0.17113876  0.11792997    -0.11700
C249        C  0.25611365  0.14192800  0.12811003    -0.25700
C250        C  0.19128437  0.15180070  0.09752668     0.36800
C251        C  0.24381126  0.25780764  0.00858730     0.06400
F252        F  0.37270994  0.23374451  0.07134288    -0.19500
H253        H  0.36686975  0.16587330  0.13994889     0.16200
F254        F  0.13095197  0.12548551  0.10316238    -0.23200
H255        H  0.13734755  0.19486966  0.03691112     0.18000
C256        C  0.22304311  0.25002767  0.95204803     0.26000
C257        C  0.21886518  0.28772674  0.91474548    -0.11700
C258        C  0.23464626  0.33492636  0.93213966    -0.25700
C259        C  0.25794321  0.34216270  0.98832691     0.36900
C260        C  0.26190659  0.30451346  0.02555570    -0.27300
F261        F  0.20782741  0.20559083  0.93242032    -0.19500
H262        H  0.20259542  0.27984264  0.87182748     0.16200
F263        F  0.27568441  0.38585578  0.00836359    -0.23200
H264        H  0.27850531  0.31216105  0.06842405     0.18000
C265        C  0.00402737  0.82315125  0.17355545    -0.27200
C266        C  0.99339177  0.80215015  0.11993143     0.06400
C267        C  0.99971807  0.83090621  0.07294758     0.26000
C268        C  0.01261226  0.87956153  0.08028972    -0.10300
C269        C  0.02192200  0.90016713  0.13411413    -0.25700
C270        C  0.01940012  0.87109168  0.18052058     0.36800
C271        C  0.97461148  0.75091892  0.11337568     0.06400
F272        F  0.99364583  0.81226355  0.01975379    -0.19500
H273        H  0.01427277  0.90129123  0.04414045     0.16200
F274        F  0.02747708  0.88978018  0.23341444    -0.23200
H275        H  0.99814612  0.80294624  0.21067749     0.18000
C276        C  0.00767278  0.71541996  0.14555300     0.26000
C277        C  0.99422844  0.66725235  0.13369024    -0.11700
C278        C  0.94873896  0.65332221  0.08920005    -0.25700
C279        C  0.42904698  0.68562988  0.06044198     0.36900
C280        C  0.45017883  0.73118455  0.07687896    -0.27300
F281        F  0.05662944  0.72653219  0.18606789    -0.19500
H282        H  0.02312913  0.64078341  0.15704301     0.16200
F283        F  0.38791492  0.68059972  0.01373545    -0.23200
H284        H  0.42894009  0.76076456  0.05415843     0.18000
C285        C  0.92821423  0.31215153  0.21465216    -0.27200
C286        C  0.97066137  0.31840706  0.26310457     0.06400
C287        C  0.01411914  0.35824141  0.26962859     0.26000
C288        C  0.02301464  0.38755211  0.22499439    -0.11700
C289        C  0.98880618  0.37736652  0.17350038    -0.25700
C290        C  0.93735900  0.34151304  0.16971787     0.36800
C291        C  0.98893460  0.27641575  0.29447655     0.06400
F292        F  0.05521613  0.36506214  0.31623004    -0.19500
H293        H  0.06152652  0.41592872  0.22911949     0.16200
F294        F  0.90332057  0.33111261  0.12062898    -0.23200
H295        H  0.89507609  0.28114344  0.20882251     0.18000
C296        C  0.43335180  0.25356679  0.32554187     0.26000
C297        C  0.44385538  0.20570070  0.33629314    -0.11700
C298        C  0.01548953  0.18113818  0.31772847    -0.25700
C299        C  0.07204498  0.20801549  0.29558592     0.36900
C300        C  0.05875691  0.25536356  0.28500894    -0.27300
F301        F  0.36488080  0.27365982  0.32940056    -0.19500
H302        H  0.39656739  0.18610433  0.34815191     0.16200
F303        F  0.13719689  0.18806284  0.27761116    -0.23200
H304        H  0.10084545  0.27407213  0.26334686     0.18000
C305        C  0.60505113  0.01485547  0.26798034     0.31000
C306        C  0.94661592  0.01205040  0.26957054     0.31000
C307        C  0.56718807  0.98116944  0.30879254    -0.05200
C308        C  0.56088979  0.06074983  0.28348481    -0.06000
C309        C  0.56905438  0.00074746  0.21034152    -0.05900
C310        C  0.98693978  0.97523596  0.30735297    -0.05200
C311        C  0.98442147  0.05737359  0.29011507    -0.06000
C312        C  0.98686674  0.00286110  0.21222610    -0.05900
C313        C  0.96837566  0.96111671  0.36091084    -0.31300
N314        N  0.53159490  0.95394155  0.39120475     0.15200
C315        C  0.59043726  0.96357259  0.35870618    -0.31300
H316        H  0.64632540  0.96263668  0.37265057     0.17200
C317        C  0.96059587  0.10277492  0.30369853    -0.30200
N318        N  0.01960421  0.13006357  0.31366723     0.14000
C319        C  0.57901171  0.10452937  0.30461192    -0.30200
C320        C  0.96594275  0.97440648  0.16716424    -0.30500
N321        N  0.02491810  0.95088165  0.14361848     0.14500
H322        H  0.91047684  0.96525731  0.15782088     0.17100
C323        C  0.59688802  0.96645247  0.17133310    -0.30500
H324        H  0.65379170  0.96113385  0.15914798     0.17100
H325        H  0.63432460  0.11455761  0.31317905     0.17100
H326        H  0.91342444  0.96189477  0.37813106     0.17200
H327        H  0.90429967  0.11560137  0.30182413     0.17100
C328        C  0.69702073  0.01626788  0.26959626     0.31000
C329        C  0.85456963  0.01423139  0.26791016     0.31000
C330        C  0.73647912  0.03178680  0.32539914    -0.05200
C331        C  0.73784328  0.96754914  0.25631370    -0.06000
C332        C  0.73640146  0.04867091  0.22714622    -0.05900
C333        C  0.81427222  0.03064273  0.32425422    -0.05200
C334        C  0.81517760  0.96642557  0.25332556    -0.06000
C335        C  0.81424075  0.04827404  0.22665188    -0.05900
C336        C  0.83641405  0.04165707  0.37877066    -0.31300
N337        N  0.77667771  0.04725476  0.41367437     0.15200
C338        C  0.71573501  0.04284701  0.38116715    -0.31300
H339        H  0.65996976  0.04482505  0.39713139     0.17200
C340        C  0.83460922  0.92198747  0.22767589    -0.30200
N341        N  0.77353525  0.89699310  0.21546988     0.14000
C342        C  0.71575936  0.92293567  0.23787401    -0.30200
C343        C  0.83435246  0.08279492  0.18933366    -0.30500
N344        N  0.77324977  0.10386238  0.16685199     0.14500
H345        H  0.89013947  0.09187235  0.17965502     0.17100
C346        C  0.71385888  0.08276702  0.18983203    -0.30500
H347        H  0.65740627  0.09260383  0.18163739     0.17100
H348        H  0.66026854  0.91159749  0.23599861     0.17100
H349        H  0.89249694  0.04298501  0.39241063     0.17200
H350        H  0.88905840  0.90934590  0.21601435     0.17100
C351        C  0.61362886  0.98321500  0.59354261     0.31000
C352        C  0.45569532  0.98387024  0.59573599     0.31000
C353        C  0.57362090  0.96936139  0.53799576    -0.05200
C354        C  0.57520175  0.94954517  0.63386042    -0.06000
C355        C  0.57173781  0.03168852  0.61166074    -0.05900
C356        C  0.49614056  0.96976249  0.53936638    -0.05200
C357        C  0.49737787  0.94943373  0.63520945    -0.06000
C358        C  0.49367053  0.03180803  0.61323224    -0.05900
C359        C  0.47390174  0.95740357  0.48553275    -0.31300
N360        N  0.53352899  0.95200064  0.45076653     0.15200
C361        C  0.59449476  0.95731880  0.48281078    -0.31300
H362        H  0.65026219  0.95514330  0.46685748     0.17200
C363        C  0.47880954  0.91480148  0.67222205    -0.30200
N364        N  0.54109476  0.89399145  0.69266585     0.14000
C365        C  0.59942849  0.91584488  0.66993611    -0.30200
C366        C  0.47163214  0.07256232  0.64587808    -0.30500
N367        N  0.53060384  0.09725000  0.66412395     0.14500
H368        H  0.92042900  0.08837158  0.65780727     0.17100
C369        C  0.59116438  0.07345888  0.64144374    -0.30500
H370        H  0.64630246  0.08377475  0.64988509     0.17100
H371        H  0.65628182  0.90808570  0.67880942     0.17100
H372        H  0.91681442  0.95848037  0.47319791     0.17200
H373        H  0.92249606  0.90711967  0.68279919     0.17100
C374        C  0.70615140  0.98159399  0.59178139     0.31000
C375        C  0.86302207  0.98578218  0.59317685     0.31000
C376        C  0.74215095  0.02121363  0.55808429    -0.05200
C377        C  0.74330656  0.98718502  0.64944005    -0.06000
C378        C  0.75138312  0.93695770  0.56715354    -0.05900
C379        C  0.82071056  0.02303459  0.55774454    -0.05200
C380        C  0.82090826  0.98913887  0.65031048    -0.06000
C381        C  0.82937080  0.94012371  0.56736503    -0.05900
C382        C  0.83919846  0.03909561  0.50488811    -0.31300
N383        N  0.77818646  0.04630578  0.47366258     0.15200
C384        C  0.71965109  0.03718906  0.50663558    -0.31300
H385        H  0.66419794  0.03652417  0.49189280     0.17200
C386        C  0.83665273  0.01437763  0.69915418    -0.30200
N387        N  0.77369759  0.03350934  0.72267724     0.14000
C388        C  0.71786073  0.01076829  0.69782325    -0.30200
C389        C  0.85841137  0.89505191  0.56384028    -0.30500
N390        N  0.80426943  0.86309709  0.56365415     0.14500
H391        H  0.91597043  0.88718093  0.56868408     0.17100
C392        C  0.73904229  0.88864324  0.56670765    -0.30500
H393        H  0.68587271  0.87446350  0.57424073     0.17100
H394        H  0.66110168  0.02030873  0.70668831     0.17100
H395        H  0.89435967  0.04026204  0.48834829     0.17200
H396        H  0.88984334  0.02788771  0.70874230     0.17100
O397        O  0.86146215  0.50949545  0.98427279    -0.79900
O398        O  0.66049720  0.51559882  0.99042036    -0.64600
O399        O  0.00133812  0.51555195  0.98426912    -1.11200
C400        C  0.52641112  0.39611928  0.12474952     1.07000
O401        O  0.66691043  0.43848473  0.97934141    -0.77800
O402        O  0.59525683  0.36618427  0.01777820    -0.65400
Ni403      Ni  0.92251674  0.55475574  0.96009771     1.34900
C404        C  0.55621255  0.37002349  0.97472493     0.85700
O405        O  0.57819443  0.59853494  0.98505847    -0.78300
O406        O  0.98463306  0.60041445  0.93124198    -0.88600
C407        C  0.65850653  0.47871341  0.95958684     0.85300
O408        O  0.90620120  0.59384009  0.02632814    -0.66800
O409        O  0.59525389  0.40470853  0.12121880    -0.86100
C410        C  0.45413539  0.59778624  0.05974544     0.86100
C411        C  0.54561530  0.60981473  0.93916650     1.07700
H412        H  0.56143435  0.48452562  0.10247100     0.39500
O413        O  0.57059056  0.47696265  0.06294217    -1.08800
O414        O  0.02380736  0.41748759  0.96755588    -0.65400
Ni415      Ni  0.98167623  0.45976158  0.02930471     1.26300
O416        O  0.49689042  0.56485487  0.07499298    -0.65700
O417        O  0.97245015  0.40930639  0.08271849    -0.77900
C418        C  0.87932012  0.47029006  0.95970541     0.85500
O419        O  0.89647611  0.43868873  0.99183284    -0.65100
Ni420      Ni  0.63862225  0.42299159  0.05333524     1.27400
Ni421      Ni  0.57569693  0.53894847  0.02819465     1.26100
H422        H  0.02363292  0.50468596  0.94962202     0.40000
O423        O  0.93144137  0.50377395  0.87623008    -0.79900
O424        O  0.64310709  0.52527839  0.88478373    -0.64600
O425        O  0.79158825  0.51738826  0.87899456    -1.11200
C426        C  0.77150369  0.38061334  0.75096788     1.07000
O427        O  0.61110762  0.45192562  0.87263602    -0.77800
O428        O  0.69380409  0.37481094  0.84838494    -0.65400
Ni429      Ni  0.87316814  0.55697470  0.89501613     1.34900
C430        C  0.73568448  0.37941518  0.89012747     0.85700
O431        O  0.70996311  0.60714012  0.87567665    -0.78300
O432        O  0.81636697  0.61104014  0.92105492    -0.88600
C433        C  0.64214445  0.48403913  0.90140581     0.85300
O434        O  0.88519256  0.58179085  0.82190039    -0.66800
O435        O  0.70724219  0.39807530  0.74226914    -0.86100
C436        C  0.84324849  0.58275462  0.77971743     0.86100
C437        C  0.75260777  0.62729981  0.91206086     1.07700
H438        H  0.73438496  0.48104327  0.76170735     0.39500
O439        O  0.72316316  0.47742014  0.80099860    -1.08800
O440        O  0.76787868  0.41878518  0.89659908    -0.65400
Ni441      Ni  0.80825409  0.45564419  0.83506482     1.26300
O442        O  0.78060578  0.56441318  0.77895548    -0.65700
O443        O  0.81594825  0.39934540  0.78633362    -0.77900
C444        C  0.91314970  0.46749372  0.90155532     0.85500
O445        O  0.89545023  0.43409652  0.86975790    -0.65100
Ni446      Ni  0.65425890  0.42681718  0.80468063     1.27400
Ni447      Ni  0.71489925  0.54322964  0.83504849     1.26100
H448        H  0.77051511  0.51190892  0.91495229     0.40000
C449        C  0.82956033  0.63850863  0.63960236    -0.27200
C450        C  0.86293457  0.68181858  0.65182977     0.06400
C451        C  0.90239426  0.68770159  0.70194465     0.26000
C452        C  0.90276517  0.65243526  0.74111673    -0.11700
C453        C  0.86349979  0.61091658  0.73129467    -0.25700
C454        C  0.83014872  0.60315032  0.67874135     0.36800
C455        C  0.84823976  0.72293301  0.61681931     0.06400
F456        F  0.93410633  0.72946660  0.71576873    -0.19500
H457        H  0.92779831  0.65970166  0.78143933     0.16200
F458        F  0.79395334  0.56269972  0.66670616    -0.23200
H459        H  0.79977051  0.63307055  0.60092482     0.18000
C460        C  0.90548258  0.75022632  0.59797265     0.26000
C461        C  0.89029125  0.79412717  0.57565122    -0.11700
C462        C  0.81750924  0.81284634  0.57295386    -0.25700
C463        C  0.76016378  0.78200444  0.58460460     0.36900
C464        C  0.77568554  0.73790654  0.60699973    -0.27300
F465        F  0.97637041  0.73518394  0.60293947    -0.19500
H466        H  0.93688487  0.81361984  0.56251910     0.16200
F467        F  0.68907337  0.79393324  0.57555741    -0.23200
H468        H  0.73054702  0.71646862  0.61943640     0.18000
C469        C  0.73377761  0.15974861  0.77119365    -0.27200
C470        C  0.75527386  0.18276764  0.72254047     0.06400
C471        C  0.77744136  0.15613918  0.67425483     0.26000
C472        C  0.78175234  0.10759508  0.67543917    -0.11700
C473        C  0.76656957  0.08416485  0.72486390    -0.25700
C474        C  0.73881733  0.11025490  0.77217343     0.36800
C475        C  0.76515492  0.23389269  0.72452432     0.06400
F476        F  0.79996105  0.17689868  0.62704268    -0.19500
H477        H  0.79846854  0.08797955  0.63737926     0.16200
F478        F  0.71800523  0.08810128  0.81877203    -0.23200
H479        H  0.71517310  0.18025974  0.80859418     0.18000
C480        C  0.73793880  0.26296857  0.68268550     0.26000
C481        C  0.74760170  0.31158415  0.68737844    -0.11700
C482        C  0.78621608  0.33130414  0.73265904    -0.25700
C483        C  0.81984498  0.30131882  0.77099217     0.36900
C484        C  0.80791260  0.25322233  0.76735308    -0.27300
F485        F  0.69877338  0.24517117  0.63907203    -0.19500
H486        H  0.72085501  0.33412827  0.65785352     0.16200
F487        F  0.85763613  0.31864614  0.81577590    -0.23200
H488        H  0.83168198  0.23099113  0.79858793     0.18000
C489        C  0.55590876  0.73881369  0.89793823    -0.27200
C490        C  0.55826082  0.73366713  0.83869997     0.06400
C491        C  0.56510979  0.68742992  0.81400063     0.26000
C492        C  0.56533420  0.64776673  0.84740268    -0.11700
C493        C  0.56264872  0.65257146  0.90669364    -0.25700
C494        C  0.55902236  0.69882073  0.93149293     0.36800
C495        C  0.55387595  0.77598408  0.80251125     0.06400
F496        F  0.56766915  0.68039880  0.75720111    -0.19500
H497        H  0.56600132  0.61274634  0.82665588     0.16200
F498        F  0.05378979  0.71620414  0.99681726    -0.23200
H499        H  0.05198652  0.78299456  0.92434273     0.18000
C500        C  0.49302831  0.80808175  0.80505290     0.26000
C501        C  0.48883307  0.84641378  0.76908535    -0.11700
C502        C  0.54537745  0.85414550  0.72976331    -0.25700
C503        C  0.60597549  0.82151861  0.72732243     0.36900
C504        C  0.60973937  0.78326876  0.76294591    -0.27300
F505        F  0.93903221  0.80922132  0.84828987    -0.19500
H506        H  0.94158417  0.87509237  0.77551047     0.16200
F507        F  0.66108298  0.82524877  0.68924799    -0.23200
H508        H  0.65682054  0.75896690  0.75945225     0.18000
C509        C  0.54354149  0.24407668  0.89996809    -0.27200
C510        C  0.54139216  0.25316767  0.84182615     0.06400
C511        C  0.54363885  0.30179526  0.82928279     0.26000
C512        C  0.54495137  0.33857862  0.87218293    -0.11700
C513        C  0.54947838  0.32936372  0.92976402    -0.25700
C514        C  0.54807523  0.28104013  0.94279784     0.36800
C515        C  0.53693776  0.21265211  0.79534267     0.06400
F516        F  0.54416787  0.31462795  0.77523613    -0.19500
H517        H  0.54435108  0.37483552  0.85975256     0.16200
F518        F  0.05516512  0.27533752  0.99508256    -0.23200
H519        H  0.04871718  0.21377873  0.91080065     0.18000
C520        C  0.49622956  0.17109747  0.80254799     0.26000
C521        C  0.49302920  0.13424099  0.75953287    -0.11700
C522        C  0.53019857  0.13670049  0.70734394    -0.25700
C523        C  0.56878546  0.17824607  0.69927734     0.36900
C524        C  0.57215135  0.21517052  0.74205554    -0.27300
F525        F  0.45700529  0.16640000  0.85062429    -0.19500
H526        H  0.46192575  0.10316602  0.76743615     0.16200
F527        F  0.60213095  0.18335073  0.64892626    -0.23200
H528        H  0.60403891  0.24555934  0.73339438     0.18000
C529        C  0.77217579  0.83030662  0.07235475    -0.27200
C530        C  0.74137187  0.78615581  0.08396493     0.06400
C531        C  0.72298445  0.78038110  0.14165752     0.26000
C532        C  0.73549623  0.81588578  0.18415810    -0.11700
C533        C  0.76675266  0.85895614  0.17196208    -0.25700
C534        C  0.78326971  0.86612200  0.11504672     0.36800
C535        C  0.73157331  0.74637403  0.03739019     0.06400
F536        F  0.69033639  0.74105432  0.15819632    -0.19500
H537        H  0.71950789  0.80989005  0.22711497     0.16200
F538        F  0.80784428  0.90869709  0.10030312    -0.23200
H539        H  0.78952444  0.83755799  0.03025606     0.18000
C540        C  0.72808504  0.75457350  0.97867485     0.26000
C541        C  0.72988463  0.71643849  0.93701795    -0.11700
C542        C  0.72940166  0.66875150  0.95186549    -0.25700
C543        C  0.72666165  0.66072854  0.00975161     0.36900
C544        C  0.72946822  0.69816107  0.05097621    -0.27300
F545        F  0.72286761  0.79926401  0.96057150    -0.19500
H546        H  0.73291319  0.72430510  0.89302648     0.16200
F547        F  0.72942977  0.61558913  0.02686673    -0.23200
H548        H  0.73602521  0.68777232  0.09350944     0.18000
C549        C  0.81653549  0.21666920  0.08922289    -0.27200
C550        C  0.76224045  0.21847729  0.04721186     0.06400
C551        C  0.71155586  0.18123550  0.04657123     0.26000
C552        C  0.71583933  0.14434432  0.08517947    -0.11700
C553        C  0.77063689  0.14228622  0.12650923    -0.25700
C554        C  0.82092141  0.17963422  0.12779509     0.36800
C555        C  0.75756411  0.25950545  0.00619033     0.06400
F556        F  0.65530614  0.18112024  0.00998962    -0.19500
H557        H  0.67559109  0.11698247  0.08257692     0.16200
F558        F  0.87314103  0.18154649  0.16773403    -0.23200
H559        H  0.85657304  0.24411375  0.09223893     0.18000
C560        C  0.73961324  0.25258479  0.94857603     0.26000
C561        C  0.73223596  0.29119361  0.91254893    -0.11700
C562        C  0.74518756  0.33863441  0.93084323    -0.25700
C563        C  0.76657550  0.34522000  0.98771894     0.36900
C564        C  0.77135096  0.30684806  0.02429813    -0.27300
F565        F  0.73148976  0.20813138  0.92586886    -0.19500
H566        H  0.71697445  0.28359024  0.86936700     0.16200
F567        F  0.78056602  0.38904270  0.00947319    -0.23200
H568        H  0.78467211  0.31462941  0.06778878     0.18000
C569        C  0.53374219  0.80560884  0.18576722    -0.27200
C570        C  0.53030535  0.78672394  0.13045253     0.06400
C571        C  0.54867953  0.81582615  0.08600072     0.26000
C572        C  0.56236139  0.86393305  0.09675445    -0.10300
C573        C  0.55922680  0.88353295  0.15177320    -0.25700
C574        C  0.54877617  0.85323688  0.19647178     0.36800
C575        C  0.50186185  0.73837101  0.11919594     0.06400
F576        F  0.55027196  0.79837929  0.03192909    -0.19500
H577        H  0.56997107  0.88662224  0.06194830     0.16200
F578        F  0.54478367  0.87099408  0.25046937    -0.23200
H579        H  0.51962637  0.78449599  0.22081473     0.18000
C580        C  0.52499019  0.69926648  0.14979317     0.26000
C581        C  0.50297510  0.65355786  0.13391269    -0.11700
C582        C  0.45731886  0.64584441  0.08756999    -0.25700
C583        C  0.91431032  0.68914074  0.05864364     0.36900
C584        C  0.92461155  0.73683827  0.07232467    -0.27300
F585        F  0.57169488  0.70446139  0.19323176    -0.19500
H586        H  0.52566743  0.62386574  0.15570192     0.16200
F587        F  0.87833436  0.67864802  0.01053350    -0.23200
H588        H  0.89664296  0.76276341  0.04772199     0.18000
C589        C  0.43776077  0.31193243  0.22072648    -0.27200
C590        C  0.47977496  0.31929094  0.26930676     0.06400
C591        C  0.52593163  0.35807848  0.27331576     0.26000
C592        C  0.53681099  0.38518920  0.22681638    -0.11700
C593        C  0.50128262  0.37428406  0.17603278    -0.25700
C594        C  0.44832497  0.33931765  0.17421545     0.36800
C595        C  0.49206083  0.27901987  0.30536469     0.06400
F596        F  0.56618502  0.36648599  0.32006704    -0.19500
H597        H  0.57653181  0.41293261  0.22941333     0.16200
F598        F  0.41301361  0.32810265  0.12583108    -0.23200
H599        H  0.40269258  0.28172735  0.21643606     0.18000
C600        C  0.93491903  0.25166787  0.32188755     0.26000
C601        C  0.94892194  0.20463657  0.33475384    -0.11700
C602        C  0.51259907  0.18255811  0.32547308    -0.25700
C603        C  0.57364088  0.21099074  0.31585386     0.36900
C604        C  0.56291808  0.25866782  0.30577300    -0.27300
F605        F  0.86728288  0.27173964  0.33223088    -0.19500
H606        H  0.90537447  0.18552514  0.35389950     0.16200
F607        F  0.64296897  0.19289416  0.30970037    -0.23200
H608        H  0.60944526  0.27797204  0.29134113     0.18000
loop_ 
_geom_bond_atom_site_label_1 
_geom_bond_atom_site_label_2 
_geom_bond_distance 
_geom_bond_site_symmetry_2 
_ccdc_geom_bond_type 
C1            C3   1.555   1_545  S
C1            C5   1.571       .  S
C1            C4   1.545       .  S
C1           C24   1.679       .  S
C2            C6   1.577   1_545  S
C2            C8   1.558   1_545  S
C2            C7   1.550       .  S
C2           C25   1.719       .  S
C3           C11   1.384       .  A
C3          C310   1.438   1_455  A
C4           C15   1.371       .  A
C4          C311   1.412   1_455  A
C5           C19   1.388   1_545  A
C5          C312   1.427   1_455  A
C6            C9   1.389       .  A
C6          C307   1.431       .  A
C7           C13   1.373       .  A
C7          C308   1.413       .  A
C8           C16   1.376       .  A
C8          C309   1.444   1_565  A
C9           H22   1.078       .  S
C9          N314   1.366       .  A
N10          C11   1.353       .  A
N10         C313   1.365   1_455  A
N10          N56   1.427       .  S
C11          H12   1.077       .  S
C13          H23   1.080       .  S
C13          N14   1.366       .  A
N14         C319   1.362       .  A
N14         C602   1.448       .  S
C15          H21   1.079       .  S
C15         N318   1.363       .  A
C16          H18   1.073       .  S
C16          N17   1.338       .  A
N17         C323   1.344       .  A
N17         C573   1.439       .  S
C19          H20   1.073       .  S
C19         N321   1.354       .  A
C24          C26   1.559       .  S
C24          C28   1.577       .  S
C24          C27   1.567   1_545  S
C25          C29   1.576       .  S
C25          C31   1.576       .  S
C25          C30   1.586   1_545  S
C26          C34   1.391       .  A
C26          C29   1.417       .  A
C27          C38   1.389       .  A
C27          C30   1.420       .  A
C28          C42   1.392       .  A
C28          C31   1.421       .  A
C29          C32   1.396       .  A
C30          C36   1.408       .  A
C31          C39   1.398       .  A
C32          H45   1.080       .  S
C32          N33   1.365       .  A
N33          C34   1.367       .  A
N33          N79   1.432       .  S
C34          H35   1.080       .  S
C36          H46   1.069       .  S
C36          N37   1.358       .  A
N37          C38   1.357       .  A
N37         C229   1.478       .  S
C38          H44   1.077       .  S
C39          H41   1.081       .  S
C39          N40   1.378       .  A
N40          C42   1.372       .  A
N40         C249   1.484       .  S
C42          H43   1.079       .  S
C47          C49   1.567       .  S
C47          C51   1.581   1_565  S
C47          C50   1.553       .  S
C47          C70   1.689       .  S
C48          C52   1.553       .  S
C48          C54   1.592   1_565  S
C48          C53   1.578       .  S
C48         C375   1.694       .  S
C49          C57   1.393       .  A
C49          C52   1.415   1_455  A
C50          C61   1.378       .  A
C50          C53   1.421   1_455  A
C51          C65   1.400       .  A
C51          C54   1.426   1_455  A
C52          C55   1.384       .  A
C53          C59   1.397       .  A
C54          C62   1.411       .  A
C55         H372   1.079       .  S
C55          N56   1.357   1_655  A
N56          C57   1.369       .  A
C57          H58   1.080       .  S
C59         H373   1.082       .  S
C59          N60   1.372   1_655  A
N60          C61   1.363       .  A
N60         C198   1.465       .  S
C61          H67   1.080       .  S
C62         H368   1.070       .  S
C62          N63   1.370   1_655  A
N63          C65   1.364       .  A
N63         C218   1.484       .  S
H64         C366   1.071       .  S
C65          H66   1.070       .  S
H68         C359   1.079       .  S
H69         C363   1.082       .  S
C70          C72   1.564   1_565  S
C70          C74   1.573       .  S
C70          C73   1.554       .  S
C71          C75   1.573   1_565  S
C71          C77   1.545       .  S
C71          C76   1.546       .  S
C71         C352   1.685       .  S
C72          C80   1.390       .  A
C72          C75   1.435       .  A
C73          C84   1.378   1_565  A
C73          C76   1.415       .  A
C74          C88   1.391       .  A
C74          C77   1.430       .  A
C75          C78   1.401       .  A
C76          C82   1.372   1_565  A
C77          C85   1.361       .  A
C78          H91   1.077       .  S
C78          N79   1.363       .  A
N79          C80   1.356       .  A
C80          H81   1.076       .  S
C82          H92   1.079       .  S
C82          N83   1.354       .  A
N83          C84   1.360       .  A
N83         C169   1.434       .  S
C84          H90   1.078       .  S
C85          H87   1.076       .  S
C85          N86   1.357       .  A
N86          C88   1.372       .  A
N86         C158   1.461       .  S
C88          H89   1.076       .  S
O93         Ni99   1.836       .  S
O93         C114   1.263       .  A
O94        Ni117   1.869   1_556  S
O94         C103   1.251       .  A
O95         Ni99   1.896       .  S
O95        Ni111   1.979   1_556  S
O95        Ni421   1.913   1_556  S
O95         H118   0.946       .  S
C96         O105   1.286       .  A
C96         O417   1.298   1_455  A
C96         C289   1.468   1_455  S
O97        Ni116   1.897   1_556  S
O97         C103   1.257       .  A
O98        Ni116   1.976       .  S
O98         C100   1.267   1_554  A
Ni99        O102   1.887       .  S
Ni99        O104   1.910   1_556  S
C100        O414   1.268       .  A
C100        C209   1.548       .  S
O101       Ni117   1.998   1_556  S
O101        C107   1.295       .  A
O102        C411   1.266       .  A
C103        C129   1.438       .  S
O104        C410   1.265       .  A
O105       Ni116   1.885       .  S
C106        O112   1.273       .  A
C106        O408   1.264       .  A
C106        C278   1.489       .  S
C107        O406   1.267   1_455  A
C107        C189   1.497       .  S
H108        O109   0.966       .  S
O109       Ni117   1.985       .  S
O109       Ni116   1.948       .  S
O109       Ni415   1.854   1_455  S
O110       Ni111   1.979   1_556  S
O110        C404   1.268       .  A
Ni111       O115   1.906   1_554  S
Ni111       O113   1.966       .  S
Ni111       O413   1.851       .  S
O112       Ni117   1.925   1_655  S
O113        C400   1.301       .  A
C114        O115   1.246       .  A
C114        C140   1.505       .  S
Ni117       O399   1.915   1_554  S
O119       Ni125   1.852       .  S
O119        C140   1.266       .  A
O120       Ni143   1.853       .  S
O120        C129   1.249       .  A
O121       Ni125   1.911       .  S
O121       Ni143   1.917       .  S
O121       Ni137   1.994       .  S
O121        H144   0.957       .  S
C122        O139   1.289       .  A
C122        O131   1.287       .  A
C122        C178   1.462       .  S
O123       Ni142   1.898       .  S
O123        C129   1.265       .  A
O124       Ni142   1.960       .  S
O124        C126   1.264       .  A
Ni125       O128   1.891       .  S
Ni125       O130   1.921       .  S
C126        O136   1.273       .  A
C126        C258   1.536       .  S
O127       Ni143   1.996       .  S
O127        C133   1.293       .  A
O128        C133   1.264       .  A
O130        C132   1.272       .  A
O131       Ni142   1.901       .  S
C132        O138   1.265       .  A
C132        C149   1.478       .  S
C133        C238   1.505       .  S
H134        O135   0.966       .  S
O135       Ni143   1.975       .  S
O135       Ni137   1.858       .  S
O135       Ni142   1.925       .  S
O136       Ni137   1.971       .  S
Ni137       O141   1.907       .  S
Ni137       O139   1.925       .  S
O138       Ni143   1.901       .  S
C140        O141   1.236       .  A
C145        C146   1.402       .  A
C145        C150   1.399       .  A
C145        H155   1.083       .  S
C146        C147   1.407       .  A
C146        C151   1.481       .  S
C147        C148   1.396       .  A
C147        F152   1.357       .  S
C148        C149   1.403       .  A
C148        H153   1.082       .  S
C149        C150   1.412       .  A
C150        F154   1.358       .  S
C151        C156   1.397       .  A
C151        C160   1.404       .  A
C156        C157   1.393       .  A
C156        F161   1.358       .  S
C157        C158   1.418       .  A
C157        H162   1.077       .  S
C158        C159   1.416       .  A
C159        C160   1.403       .  A
C159        F163   1.354       .  S
C160        H164   1.083       .  S
C165        C166   1.409       .  A
C165        C170   1.405       .  A
C165        H175   1.083       .  S
C166        C167   1.388       .  A
C166        C171   1.453       .  S
C167        C168   1.370       .  A
C167        F172   1.359       .  S
C168        C169   1.406       .  A
C168        H173   1.076       .  S
C169        C170   1.402       .  A
C170        F174   1.356       .  S
C171        C176   1.402       .  A
C171        C180   1.395       .  A
C176        C177   1.384       .  A
C176        F181   1.358       .  S
C177        C178   1.401       .  A
C177        H182   1.083       .  S
C178        C179   1.410       .  A
C179        C180   1.390       .  A
C179        F183   1.355       .  S
C180        H184   1.080       .  S
C185        C186   1.411       .  A
C185        C190   1.416       .  A
C185        H499   1.082       .  S
C186        C187   1.407       .  A
C186        C191   1.508       .  S
C187        C188   1.403       .  A
C187        F192   1.357       .  S
C188        C189   1.409       .  A
C188        H193   1.084       .  S
C189        C190   1.409       .  A
C190        F498   1.354       .  S
C191        C196   1.412   1_455  A
C191        C200   1.404       .  A
F194        C494   1.352       .  S
H195        C489   1.082       .  S
C196        C197   1.415       .  A
C196        F505   1.357       .  S
C197        C198   1.411   1_655  A
C197        H506   1.082       .  S
C198        C199   1.417       .  A
C199        C200   1.406       .  A
C199        F203   1.353       .  S
C200        H204   1.084       .  S
F201        C500   1.357       .  S
H202        C501   1.082       .  S
C205        C206   1.420       .  A
C205        C210   1.429       .  A
C205        H519   1.082       .  S
C206        C207   1.421       .  A
C206        C211   1.558       .  S
C207        C208   1.427       .  A
C207        F212   1.357       .  S
C208        C209   1.417       .  A
C208        H213   1.080       .  S
C209        C210   1.417       .  A
C210        F518   1.356       .  S
C211        C216   1.422       .  A
C211        C220   1.421   1_455  A
F214        C514   1.357       .  S
H215        C509   1.081       .  S
C216        C217   1.426       .  A
C216        F221   1.355       .  S
C217        C218   1.415       .  A
C217        H222   1.082       .  S
C218        C219   1.415   1_455  A
C219        C220   1.428       .  A
C219        F223   1.355       .  S
C220        H224   1.080       .  S
C225        C226   1.410       .  A
C225        C230   1.418       .  A
C225        H235   1.083       .  S
C226        C227   1.411       .  A
C226        C231   1.527       .  S
C227        C228   1.411       .  A
C227        F232   1.351       .  S
C228        C229   1.410       .  A
C228        H233   1.081       .  S
C229        C230   1.426       .  A
C230        F234   1.354       .  S
C231        C236   1.420   1_554  A
C231        C240   1.410       .  A
C236        C237   1.422       .  A
C236        F241   1.357       .  S
C237        C238   1.410       .  A
C237        H242   1.083       .  S
C238        C239   1.410       .  A
C239        C240   1.406   1_556  A
C239        F243   1.358   1_556  S
C240        H244   1.082       .  S
C245        C246   1.412       .  A
C245        C250   1.422       .  A
C245        H255   1.083       .  S
C246        C247   1.412       .  A
C246        C251   1.531       .  S
C247        C248   1.418       .  A
C247        F252   1.356       .  S
C248        C249   1.416       .  A
C248        H253   1.081       .  S
C249        C250   1.426       .  A
C250        F254   1.356       .  S
C251        C256   1.413   1_554  A
C251        C260   1.411       .  A
C256        C257   1.421       .  A
C256        F261   1.356       .  S
C257        C258   1.416       .  A
C257        H262   1.083       .  S
C258        C259   1.417       .  A
C259        C260   1.419   1_556  A
C259        F263   1.352   1_556  S
C260        H264   1.083       .  S
C265        C266   1.400   1_455  A
C265        C270   1.394       .  A
C265        H275   1.082   1_455  S
C266        C267   1.420       .  A
C266        C271   1.499       .  S
C267        C268   1.404   1_655  A
C267        F272   1.355       .  S
C268        C269   1.397       .  A
C268        H273   1.083       .  S
C269        C270   1.410       .  A
C269        N321   1.442       .  S
C270        F274   1.354       .  S
C271        C276   1.418   1_655  A
C271        C584   1.399       .  A
C276        C277   1.406   1_455  A
C276        F281   1.356       .  S
C277        C278   1.404       .  A
C277        H282   1.083   1_655  S
C278        C583   1.413       .  A
C279        C280   1.394       .  A
C279        C582   1.412       .  A
C279        F283   1.355       .  S
C280        C575   1.402       .  A
C280        H284   1.083       .  S
C285        C286   1.406       .  A
C285        C290   1.397       .  A
C285        H295   1.084       .  S
C286        C287   1.400   1_655  A
C286        C291   1.466       .  S
C287        C288   1.390       .  A
C287        F292   1.358       .  S
C288        C289   1.405   1_455  A
C288        H293   1.084       .  S
C289        C290   1.402       .  A
C290        F294   1.356       .  S
C291        C300   1.401   1_655  A
C291        C600   1.398       .  A
C296        C297   1.397       .  A
C296        C595   1.400       .  A
C296        F301   1.357       .  S
C297        C602   1.412       .  A
C297        H302   1.081       .  S
C298        C299   1.411       .  A
C298        C601   1.411   1_455  A
C298        N318   1.441       .  S
C299        C300   1.388       .  A
C299        F303   1.355       .  S
C300        H304   1.084       .  S
C305        C307   1.562   1_545  S
C305        C309   1.569       .  S
C305        C308   1.533       .  S
C305        C328   1.681       .  S
C306        C310   1.581   1_545  S
C306        C312   1.548       .  S
C306        C311   1.535       .  S
C306        C329   1.680       .  S
C307        C315   1.379       .  A
C308        C319   1.364       .  A
C309        C323   1.389   1_545  A
C310        C313   1.396       .  A
C311        C317   1.364       .  A
C312        C320   1.375   1_545  A
C313        H326   1.077       .  S
N314        C315   1.357       .  A
N314        N360   1.424       .  S
C315        H316   1.077       .  S
C317        H327   1.081       .  S
C317        N318   1.360   1_655  A
C319        H325   1.076       .  S
C320        H322   1.076       .  S
C320        N321   1.348   1_655  A
C323        H324   1.078       .  S
C328        C330   1.571       .  S
C328        C332   1.577       .  S
C328        C331   1.562   1_545  S
C329        C333   1.564       .  S
C329        C335   1.583       .  S
C329        C334   1.575   1_545  S
C330        C338   1.394       .  A
C330        C333   1.419       .  A
C331        C342   1.387       .  A
C331        C334   1.411       .  A
C332        C346   1.400       .  A
C332        C335   1.420       .  A
C333        C336   1.389       .  A
C334        C340   1.403       .  A
C335        C343   1.405       .  A
C336        H349   1.079       .  S
C336        N337   1.362       .  A
N337        C338   1.370       .  A
N337        N383   1.431       .  S
C338        H339   1.080       .  S
C340        H350   1.074       .  S
C340        N341   1.364       .  A
N341        C342   1.354       .  A
N341        C533   1.465       .  S
C342        H348   1.072       .  S
C343        H345   1.082       .  S
C343        N344   1.376       .  A
N344        C346   1.372       .  A
N344        C553   1.485       .  S
C346        H347   1.082       .  S
C351        C353   1.559       .  S
C351        C355   1.586   1_565  S
C351        C354   1.559       .  S
C351        C374   1.688       .  S
C352        C356   1.552       .  S
C352        C358   1.580   1_565  S
C352        C357   1.574       .  S
C353        C361   1.387       .  A
C353        C356   1.414       .  A
C354        C365   1.381       .  A
C354        C357   1.420       .  A
C355        C369   1.404       .  A
C355        C358   1.425       .  A
C356        C359   1.382       .  A
C357        C363   1.395       .  A
C358        C366   1.403       .  A
C359        N360   1.358       .  A
N360        C361   1.366       .  A
C361        H362   1.080       .  S
C363        N364   1.371       .  A
N364        C365   1.365       .  A
N364        C502   1.466       .  S
C365        H371   1.080       .  S
C366        N367   1.365       .  A
N367        C369   1.367       .  A
N367        C522   1.479       .  S
C369        H370   1.075       .  S
C374        C376   1.564   1_565  S
C374        C378   1.571       .  S
C374        C377   1.544       .  S
C375        C379   1.573   1_565  S
C375        C381   1.549       .  S
C375        C380   1.551       .  S
C376        C384   1.390       .  A
C376        C379   1.436       .  A
C377        C388   1.371   1_565  A
C377        C380   1.419       .  A
C378        C392   1.390       .  A
C378        C381   1.429       .  A
C379        C382   1.399       .  A
C380        C386   1.373   1_565  A
C381        C389   1.363       .  A
C382        H395   1.078       .  S
C382        N383   1.364       .  A
N383        C384   1.355       .  A
C384        H385   1.076       .  S
C386        H396   1.077       .  S
C386        N387   1.357       .  A
N387        C388   1.349       .  A
N387        C473   1.432       .  S
C388        H394   1.078       .  S
C389        H391   1.076       .  S
C389        N390   1.358       .  A
N390        C392   1.373       .  A
N390        C462   1.461       .  S
C392        H393   1.077       .  S
O397       Ni403   1.830       .  S
O397        C418   1.259       .  A
O398       Ni421   1.866   1_556  S
O398        C407   1.247       .  A
O399       Ni403   1.902   1_455  S
O399       Ni415   1.988   1_456  S
O399        H422   0.948       .  S
C400        O409   1.289       .  A
C400        C593   1.469       .  S
O401       Ni420   1.905   1_556  S
O401        C407   1.257       .  A
O402       Ni420   1.970       .  S
O402        C404   1.264   1_554  A
Ni403       O406   1.890       .  S
Ni403       O408   1.895   1_556  S
C404        C513   1.540       .  S
O405       Ni421   2.016   1_556  S
O405        C411   1.301       .  A
C407        C433   1.436       .  S
O409       Ni420   1.892       .  S
C410        O416   1.267       .  A
C410        C582   1.484       .  S
C411        C493   1.504       .  S
H412        O413   0.966       .  S
O413       Ni421   1.978       .  S
O413       Ni420   1.940       .  S
O414       Ni415   1.980   1_456  S
Ni415       O419   1.900   1_554  S
Ni415       O417   1.966       .  S
O416       Ni421   1.912       .  S
C418        O419   1.240       .  A
C418        C444   1.506       .  S
O423       Ni429   1.848       .  S
O423        C444   1.266       .  A
O424       Ni447   1.853       .  S
O424        C433   1.249       .  A
O425       Ni429   1.920       .  S
O425       Ni447   1.909       .  S
O425       Ni441   2.003       .  S
O425        H448   0.955       .  S
C426        O443   1.284       .  A
C426        O435   1.282       .  A
C426        C482   1.455       .  S
O427       Ni446   1.887       .  S
O427        C433   1.263       .  A
O428       Ni446   1.968       .  S
O428        C430   1.267       .  A
Ni429       O432   1.894       .  S
Ni429       O434   1.921       .  S
C430        O440   1.277       .  A
C430        C562   1.550       .  S
O431       Ni447   2.005       .  S
O431        C437   1.296       .  A
O432        C437   1.263       .  A
O434        C436   1.273       .  A
O435       Ni446   1.897       .  S
C436        O442   1.269       .  A
C436        C453   1.482       .  S
C437        C542   1.516       .  S
H438        O439   0.966       .  S
O439       Ni447   1.992       .  S
O439       Ni441   1.865       .  S
O439       Ni446   1.936       .  S
O440       Ni441   1.985       .  S
Ni441       O445   1.901       .  S
Ni441       O443   1.923       .  S
O442       Ni447   1.912       .  S
C444        O445   1.234       .  A
C449        C450   1.403       .  A
C449        C454   1.400       .  A
C449        H459   1.083       .  S
C450        C451   1.408       .  A
C450        C455   1.483       .  S
C451        C452   1.398       .  A
C451        F456   1.358       .  S
C452        C453   1.404       .  A
C452        H457   1.083       .  S
C453        C454   1.410       .  A
C454        F458   1.358       .  S
C455        C460   1.399       .  A
C455        C464   1.404       .  A
C460        C461   1.395       .  A
C460        F465   1.358       .  S
C461        C462   1.418       .  A
C461        H466   1.078       .  S
C462        C463   1.415       .  A
C463        C464   1.402       .  A
C463        F467   1.354       .  S
C464        H468   1.083       .  S
C469        C470   1.413       .  A
C469        C474   1.400       .  A
C469        H479   1.083       .  S
C470        C471   1.391       .  A
C470        C475   1.460       .  S
C471        C472   1.373       .  A
C471        F476   1.358       .  S
C472        C473   1.407       .  A
C472        H477   1.075       .  S
C473        C474   1.396       .  A
C474        F478   1.356       .  S
C475        C480   1.409       .  A
C475        C484   1.393       .  A
C480        C481   1.389       .  A
C480        F485   1.354       .  S
C481        C482   1.399       .  A
C481        H486   1.084       .  S
C482        C483   1.411       .  A
C483        C484   1.381       .  A
C483        F487   1.358       .  S
C484        H488   1.084       .  S
C489        C490   1.411       .  A
C489        C494   1.416       .  A
C490        C491   1.407       .  A
C490        C495   1.509       .  S
C491        C492   1.406       .  A
C491        F496   1.358       .  S
C492        C493   1.412       .  A
C492        H497   1.084       .  S
C493        C494   1.407       .  A
C495        C500   1.411       .  A
C495        C504   1.405       .  A
C500        C501   1.415       .  A
C501        C502   1.413       .  A
C502        C503   1.417       .  A
C503        C504   1.407       .  A
C503        F507   1.355       .  S
C504        H508   1.083       .  S
C509        C510   1.422       .  A
C509        C514   1.429       .  A
C510        C511   1.422       .  A
C510        C515   1.558       .  S
C511        C512   1.422       .  A
C511        F516   1.355       .  S
C512        C513   1.412       .  A
C512        H517   1.080       .  S
C513        C514   1.416       .  A
C515        C520   1.424       .  A
C515        C524   1.420       .  A
C520        C521   1.428       .  A
C520        F525   1.356       .  S
C521        C522   1.413       .  A
C521        H526   1.082       .  S
C522        C523   1.407       .  A
C523        C524   1.425       .  A
C523        F527   1.353       .  S
C524        H528   1.078       .  S
C529        C530   1.421       .  A
C529        C534   1.420       .  A
C529        H539   1.078       .  S
C530        C531   1.428       .  A
C530        C535   1.556       .  S
C531        C532   1.415       .  A
C531        F536   1.349       .  S
C532        C533   1.401       .  A
C532        H537   1.083       .  S
C533        C534   1.410       .  A
C534        F538   1.357       .  S
C535        C540   1.431   1_554  A
C535        C544   1.417       .  A
C540        C541   1.428       .  A
C540        F545   1.355       .  S
C541        C542   1.410       .  A
C541        H546   1.083       .  S
C542        C543   1.409   1_556  A
C543        C544   1.410       .  A
C543        F547   1.358       .  S
C544        H548   1.076       .  S
C549        C550   1.420       .  A
C549        C554   1.427       .  A
C549        H559   1.082       .  S
C550        C551   1.421       .  A
C550        C555   1.554       .  S
C551        C552   1.425       .  A
C551        F556   1.356       .  S
C552        C553   1.415       .  A
C552        H557   1.082       .  S
C553        C554   1.418       .  A
C554        F558   1.357       .  S
C555        C560   1.421   1_554  A
C555        C564   1.416       .  A
C560        C561   1.425       .  A
C560        F565   1.356       .  S
C561        C562   1.417       .  A
C561        H566   1.083       .  S
C562        C563   1.420       .  A
C563        C564   1.425   1_556  A
C563        F567   1.351   1_556  S
C564        H568   1.081       .  S
C569        C570   1.400       .  A
C569        C574   1.393       .  A
C569        H579   1.082       .  S
C570        C571   1.415       .  A
C570        C575   1.489       .  S
C571        C572   1.401       .  A
C571        F576   1.356       .  S
C572        C573   1.397       .  A
C572        H577   1.083       .  S
C573        C574   1.413       .  A
C574        F578   1.358       .  S
C575        C580   1.411       .  A
C580        C581   1.400       .  A
C580        F585   1.355       .  S
C581        C582   1.405       .  A
C581        H586   1.083       .  S
C583        C584   1.390       .  A
C583        F587   1.354       .  S
C584        H588   1.081       .  S
C589        C590   1.408       .  A
C589        C594   1.397       .  A
C589        H599   1.084       .  S
C590        C591   1.402       .  A
C590        C595   1.473       .  S
C591        C592   1.393       .  A
C591        F596   1.358       .  S
C592        C593   1.406       .  A
C592        H597   1.084       .  S
C593        C594   1.402       .  A
C594        F598   1.357       .  S
C595        C604   1.400       .  A
C600        C601   1.395       .  A
C600        F605   1.357       .  S
C601        H606   1.082       .  S
C602        C603   1.415       .  A
C603        C604   1.389       .  A
C603        F607   1.354       .  S
C604        H608   1.084       .  S
