geometry optimzed in LAMMPS
_audit_creation_date              2020-11-30 
_audit_creation_method            'lammps2cif' 
_symmetry_space_group_name_H-M    'P1' 
_symmetry_Int_Tables_number       1 
_symmetry_cell_setting            triclinic 
loop_ 
_symmetry_equiv_pos_as_xyz 
  x,y,z 
_cell_length_a                    42.79206869 
_cell_length_b                    42.50403733285969 
_cell_length_c                    42.46988619084852 
_cell_angle_alpha                 89.768879259367 
_cell_angle_beta                  90.23842108591566 
_cell_angle_gamma                 90.86903504604841 
loop_ 
_atom_site_label 
_atom_site_type_symbol 
_atom_site_fract_x 
_atom_site_fract_y 
_atom_site_fract_z 
_atom_site_charge 
O1          O  0.52770650  0.04858461  0.83561914    -0.86800
O2          O  0.52948716  0.04556490  0.65600763    -0.87000
O3          O  0.59121750  0.03832119  0.74257611    -0.88700
O4          O  0.51879628  0.11066979  0.74799639    -0.87400
O5          O  0.46522400  0.10965431  0.74644454    -0.87000
O6          O  0.59059174  0.98429113  0.74202313    -0.88400
O7          O  0.55483986  0.07355134  0.69482666    -0.86900
O8          O  0.55678421  0.07229799  0.79656039    -0.86400
Zr9        Zr  0.53678078  0.05581214  0.74568601     2.84300
O10         O  0.49247846  0.05532317  0.71297785    -1.08400
O11         O  0.53714830  0.01141847  0.77847667    -1.09100
C12         C  0.54969498  0.06724813  0.82566238     1.06300
C13         C  0.54960828  0.06648094  0.66578062     1.06200
C14         C  0.60470432  0.01132282  0.74026867     1.09200
C15         C  0.49184109  0.12427956  0.74849701     1.07000
H16         H  0.55423776  0.01051137  0.70124542     0.32500
O17         O  0.53600895  0.01056184  0.71452741    -1.29400
H18         H  0.49241945  0.07429903  0.79036063     0.32200
O19         O  0.49235757  0.05571370  0.77737418    -1.31000
O20         O  0.45632833  0.97127967  0.65700501    -0.86800
O21         O  0.45544284  0.97477707  0.83612702    -0.88300
O22         O  0.55345500  0.94571876  0.69694580    -0.86900
O23         O  0.43202375  0.07498164  0.69427309    -0.86900
O24         O  0.42891079  0.07414353  0.79511702    -0.86700
O25         O  0.55639566  0.94996324  0.79873052    -0.86500
O26         O  0.46612495  0.91001629  0.75279068    -0.86800
O27         O  0.39372662  0.98197026  0.74298452    -0.86300
O28         O  0.51971560  0.91150700  0.75259183    -0.87400
O29         O  0.39417377  0.03602359  0.74077210    -0.86500
O30         O  0.52822016  0.97287509  0.65782640    -0.86900
O31         O  0.52974416  0.97751617  0.83622605    -0.86600
O32         O  0.45548414  0.04708167  0.83345561    -0.86300
O33         O  0.45521944  0.04595604  0.65553966    -0.86700
O34         O  0.43308831  0.94205607  0.69641933    -0.87000
O35         O  0.42673101  0.94922959  0.79783920    -0.88300
Zr36       Zr  0.49186957  0.00972178  0.68181470     2.83100
Zr37       Zr  0.49212118  0.01118625  0.80979310     2.83500
Zr38       Zr  0.53655420  0.96617947  0.74727873     2.84100
Zr39       Zr  0.44810326  0.05469779  0.74498676     2.83400
Zr40       Zr  0.44787522  0.96450295  0.74684617     2.84200
O41         O  0.44749471  0.01013219  0.77768032    -1.08900
O42         O  0.49220381  0.96496763  0.71472299    -1.08400
C43         C  0.43835202  0.94872345  0.66725414     1.06300
C44         C  0.43361540  0.95550488  0.82677642     1.08900
C45         C  0.54783939  0.95207273  0.66774092     1.06400
C46         C  0.43687665  0.06790633  0.66527167     1.06800
C47         C  0.43524009  0.06734374  0.82407560     1.06400
C48         C  0.55046031  0.95755502  0.82749914     1.05900
C49         C  0.49318950  0.89679996  0.75492042     1.06400
C50         C  0.38018715  0.00887870  0.74022486     1.05900
H51         H  0.49221680  0.94780978  0.79314704     0.32500
O52         O  0.49217514  0.96577872  0.77918964    -1.30000
H53         H  0.42951693  0.00863450  0.70043451     0.32600
O54         O  0.44770124  0.00913622  0.71394762    -1.31400
C55         C  0.64728132  0.20302739  0.49883916    -0.02800
O56         O  0.55519764  0.07769661  0.29787802    -0.86800
O57         O  0.43203928  0.94547655  0.30072554    -0.87000
O58         O  0.45826594  0.04754725  0.33693417    -0.88700
O59         O  0.53187004  0.97614533  0.33802135    -0.87400
O60         O  0.55354965  0.94573944  0.29946197    -0.87000
O61         O  0.43344267  0.07622840  0.29863969    -0.88400
O62         O  0.45954997  0.97327204  0.33811662    -0.86900
O63         O  0.52791268  0.05141940  0.33655757    -0.86400
Zr64       Zr  0.49434048  0.01135184  0.31210107     2.84300
O65         O  0.49268965  0.96598954  0.28104049    -1.08400
O66         O  0.49457153  0.05572765  0.27913578    -1.09100
C67         C  0.54749911  0.07282984  0.32689478     1.06300
C68         C  0.43958299  0.95173647  0.32951326     1.06200
C69         C  0.43916084  0.06906359  0.32768927     1.09200
C70         C  0.54964144  0.95373107  0.32838064     1.07000
H71         H  0.43127228  0.01131702  0.29443320     0.32500
O72         O  0.44923013  0.01118627  0.28077152    -1.29400
H73         H  0.55692694  0.01149612  0.29381751     0.32200
O74         O  0.53869672  0.01123817  0.28036608    -1.31000
O75         O  0.42796177  0.94726173  0.19904324    -0.86800
O76         O  0.55882281  0.07131441  0.19573796    -0.88300
O77         O  0.39446407  0.03813240  0.25260815    -0.86900
O78         O  0.51829676  0.91168319  0.24591323    -0.86900
O79         O  0.59160734  0.98314896  0.25343790    -0.86700
O80         O  0.46836179  0.10966052  0.24202904    -0.86500
O81         O  0.45777670  0.04639091  0.15787048    -0.86800
O82         O  0.52843726  0.97322063  0.15973790    -0.86300
O83         O  0.42877744  0.07019250  0.19624185    -0.87400
O84         O  0.55811347  0.95056319  0.19867622    -0.86500
O85         O  0.39329331  0.98417206  0.25462636    -0.86900
O86         O  0.52211904  0.10990275  0.24363055    -0.86600
O87         O  0.59350498  0.03709745  0.25128455    -0.86300
O88         O  0.46466484  0.91165156  0.24642134    -0.86700
O89         O  0.45496204  0.97401998  0.16037223    -0.87000
O90         O  0.53128481  0.04324583  0.15840311    -0.88300
Zr91       Zr  0.44751671  0.96604154  0.24953996     2.83100
Zr92       Zr  0.53926168  0.05551035  0.24739110     2.83500
Zr93       Zr  0.44932972  0.05547248  0.24777986     2.84100
Zr94       Zr  0.53700398  0.96612035  0.24898327     2.83400
Zr95       Zr  0.49273114  0.00989811  0.18482824     2.84200
O96         O  0.53796709  0.01033023  0.21615777    -1.08900
O97         O  0.44777823  0.01031128  0.21645682    -1.08400
C98         C  0.43424409  0.95377461  0.17002340     1.06300
C99         C  0.55260299  0.06328154  0.16704523     1.08900
C100        C  0.37989297  0.01132155  0.25558834     1.06400
C101        C  0.49126128  0.89772243  0.24462909     1.06800
C102        C  0.60648982  0.00985354  0.25416252     1.06400
C103        C  0.49544153  0.12355148  0.24094584     1.05900
C104        C  0.43588538  0.06472639  0.16726843     1.06400
C105        C  0.55069093  0.95539650  0.16964585     1.05900
H106        H  0.49426054  0.07310258  0.20190512     0.32500
O107        O  0.49400513  0.05510810  0.21583864    -1.30000
H108        H  0.49175521  0.94723427  0.20417416     0.32600
O109        O  0.49202741  0.96563745  0.21741181    -1.31400
C110        C  0.29994975  0.85660373  0.99818169    -0.02800
C111        C  0.68121783  0.85748865  0.00021756    -0.02800
C112        C  0.65287836  0.82471730  0.49612582    -0.02800
C113        C  0.30536411  0.16353007  0.99564701    -0.02800
C114        C  0.68465281  0.16502705  0.99543566    -0.02800
C115        C  0.33822176  0.19999195  0.49870652    -0.02800
C116        C  0.33926291  0.81602378  0.50025468    -0.02800
O117        O  0.89549038  0.76323507  0.47061059    -0.86800
O118        O  0.02190491  0.75362472  0.59589827    -0.87000
O119        O  0.93370191  0.70516726  0.55992309    -0.88700
O120        O  0.93292830  0.80734930  0.56216252    -0.87400
O121        O  0.95808046  0.84690228  0.53486601    -0.87000
O122        O  0.96042294  0.66868245  0.53110929    -0.88400
O123        O  0.96834944  0.75526249  0.59645841    -0.86900
O124        O  0.89627199  0.76147747  0.52464161    -0.86400
Zr125      Zr  0.95064490  0.75735618  0.54173492     2.84300
O126        O  0.99497313  0.79035031  0.54201927    -1.08400
O127        O  0.94983349  0.72615694  0.49623757    -1.09100
C128        C  0.88205287  0.76448139  0.49788097     1.06300
C129        C  0.99523777  0.75277230  0.61015217     1.06200
C130        C  0.94064755  0.67667580  0.55238365     1.09200
C131        C  0.93847044  0.83664723  0.55587247     1.07000
H132        H  0.99560388  0.71229945  0.55861636     0.32500
O133        O  0.99517203  0.72607043  0.54050028    -1.29400
H134        H  0.93226703  0.80349021  0.49750572     0.32200
O135        O  0.95043741  0.79033608  0.49730071    -1.31000
O136        O  0.09337436  0.76526487  0.52353322    -0.86800
O137        O  0.96838921  0.75466876  0.39760152    -0.88300
O138        O  0.03284323  0.66984682  0.52895442    -0.86900
O139        O  0.03213448  0.84832028  0.53424806    -0.86900
O140        O  0.95831958  0.84804084  0.45993134    -0.86700
O141        O  0.95796512  0.66976311  0.45837908    -0.86500
O142        O  0.06257370  0.71196812  0.43741083    -0.86800
O143        O  0.05296675  0.81291470  0.43013853    -0.86300
O144        O  0.03262794  0.67199090  0.45874106    -0.87400
O145        O  0.02753519  0.85082271  0.45797499    -0.86500
O146        O  0.05979798  0.70765820  0.55694825    -0.86900
O147        O  0.92802174  0.70835838  0.43598782    -0.86600
O148        O  0.93375648  0.80950306  0.43083554    -0.86300
O149        O  0.05537137  0.80884941  0.56285219    -0.86700
O150        O  0.09272352  0.76927005  0.46963388    -0.87000
O151        O  0.02208131  0.75557266  0.39816678    -0.88300
Zr152      Zr  0.03939382  0.75877095  0.54132220     2.83100
Zr153      Zr  0.94966726  0.75911972  0.45194507     2.83500
Zr154      Zr  0.99515637  0.69565056  0.49467694     2.84100
Zr155      Zr  0.99453882  0.82355912  0.49744702     2.83400
Zr156      Zr  0.03908224  0.76159473  0.45213474     2.84200
O157        O  0.99409967  0.79210992  0.45226433    -1.08900
O158        O  0.03986985  0.72815273  0.49583486    -1.08400
C159        C  0.10671874  0.76992510  0.49659891     1.06300
C160        C  0.99542232  0.75274907  0.38413967     1.08900
C161        C  0.05376707  0.67880535  0.54920084     1.06400
C162        C  0.05066333  0.83792769  0.55606126     1.06800
C163        C  0.93938700  0.83854652  0.43788462     1.06400
C164        C  0.93523793  0.67932170  0.44066965     1.05900
C165        C  0.05556606  0.68263858  0.44183704     1.06400
C166        C  0.04609007  0.84184262  0.43572600     1.05900
H167        H  0.99485372  0.71495639  0.43280506     0.32500
O168        O  0.99472234  0.72849628  0.45097729    -1.30000
H169        H  0.05694831  0.80659879  0.49752627     0.32600
O170        O  0.03904358  0.79253196  0.49739895    -1.31400
O171        O  0.89471385  0.24873946  0.47453022    -0.86800
O172        O  0.02221350  0.26202178  0.59989825    -0.87000
O173        O  0.93433071  0.20536343  0.56834728    -0.88700
O174        O  0.92824668  0.30499013  0.56402292    -0.87400
O175        O  0.95775380  0.34472921  0.54171987    -0.87000
O176        O  0.95701343  0.16739170  0.53793042    -0.88400
O177        O  0.96862168  0.26252538  0.60011960    -0.86900
O178        O  0.89543134  0.24930322  0.52862411    -0.86400
Zr179      Zr  0.94960580  0.25571083  0.54641438     2.84300
O180        O  0.99440273  0.28780421  0.54736042    -1.08400
O181        O  0.94844607  0.22501062  0.50090140    -1.09100
C182        C  0.88143472  0.24633199  0.50171529     1.06300
C183        C  0.99556919  0.26477887  0.61384061     1.06200
C184        C  0.93942464  0.17658686  0.56087938     1.09200
C185        C  0.93570136  0.33416641  0.55981116     1.07000
H186        H  0.99478286  0.21148818  0.56436809     0.32500
O187        O  0.99432976  0.22456353  0.54572507    -1.29400
H188        H  0.92927540  0.30121195  0.50287792     0.32200
O189        O  0.94800014  0.28881276  0.50243857    -1.31000
O190        O  0.09317805  0.25339478  0.52669545    -0.86800
O191        O  0.96469355  0.26585197  0.40224796    -0.88300
O192        O  0.03017703  0.16855834  0.53502550    -0.86900
O193        O  0.03028547  0.34629337  0.54008748    -0.86900
O194        O  0.95616114  0.34762270  0.46902785    -0.86700
O195        O  0.95676216  0.16881433  0.46209661    -0.86500
O196        O  0.05209591  0.20814191  0.43374397    -0.86800
O197        O  0.05393151  0.31136177  0.43778269    -0.86300
O198        O  0.02832166  0.16876011  0.46267022    -0.87400
O199        O  0.02739804  0.34772426  0.46699708    -0.86500
O200        O  0.05669350  0.20593910  0.56388432    -0.86900
O201        O  0.93362173  0.20807291  0.43318618    -0.86600
O202        O  0.92961145  0.30969389  0.44068810    -0.86300
O203        O  0.06066540  0.30778224  0.56206511    -0.86700
O204        O  0.09148217  0.25409584  0.47268828    -0.87000
O205        O  0.01822696  0.26449309  0.40078056    -0.88300
Zr206      Zr  0.03924901  0.25701377  0.54527468     2.83100
Zr207      Zr  0.94822797  0.25813105  0.45670616     2.83500
Zr208      Zr  0.99275008  0.19364280  0.49996554     2.84100
Zr209      Zr  0.99309657  0.32089609  0.50370802     2.83400
Zr210      Zr  0.03706261  0.25907171  0.45527387     2.84200
O211        O  0.99272182  0.29037172  0.45790813    -1.08900
O212        O  0.03744012  0.22625774  0.49966393    -1.08400
C213        C  0.10618779  0.25179797  0.49930561     1.06300
C214        C  0.99107375  0.26751642  0.38757923     1.08900
C215        C  0.05036760  0.17716530  0.55617369     1.06400
C216        C  0.05303040  0.33676879  0.55772837     1.06800
C217        C  0.93587669  0.33855507  0.44815968     1.06400
C218        C  0.93892538  0.17897401  0.43967319     1.05900
C219        C  0.04661502  0.17883307  0.44045199     1.06400
C220        C  0.04707520  0.33977308  0.44565217     1.05900
H221        H  0.99236424  0.21449896  0.43624282     0.32500
O222        O  0.99251428  0.22670433  0.45536054    -1.30000
H223        H  0.05691978  0.30320793  0.50080778     0.32600
O224        O  0.03832745  0.29002531  0.50103455    -1.31400
C225        C  0.80887547  0.50635944  0.65374044    -0.02800
C226        C  0.18808353  0.51139690  0.65092604    -0.02800
C227        C  0.83895514  0.01144423  0.30774445    -0.02800
C228        C  0.83642622  0.00502972  0.68943202    -0.02800
C229        C  0.80370510  0.50463331  0.34193955    -0.02800
C230        C  0.18208942  0.50819600  0.34568767    -0.02800
C231        C  0.14519144  0.01562911  0.30099540    -0.02800
C232        C  0.14876357  0.00427493  0.68647584    -0.02800
O233        O  0.73955841  0.61171607  0.97006192    -0.86800
O234        O  0.74784411  0.48517601  0.09617251    -0.87000
O235        O  0.69325875  0.57479002  0.06147624    -0.88700
O236        O  0.79393579  0.57675362  0.05895486    -0.87400
O237        O  0.83207892  0.54661624  0.03663579    -0.87000
O238        O  0.65472374  0.54668302  0.03560785    -0.88400
O239        O  0.74871420  0.53916624  0.09646383    -0.86900
O240        O  0.73799376  0.61132585  0.02399235    -0.86400
Zr241      Zr  0.74329940  0.55693239  0.04213182     2.84300
O242        O  0.77467914  0.51227113  0.04258777    -1.08400
O243        O  0.71179816  0.55610070  0.99735120    -1.09100
C244        C  0.73665139  0.62543559  0.99697762     1.06300
C245        C  0.75027792  0.51200524  0.11010229     1.06200
C246        C  0.66443238  0.56748253  0.05570039     1.09200
C247        C  0.82259571  0.56884224  0.05486813     1.07000
H248        H  0.69900495  0.51167480  0.06191471     0.32500
O249        O  0.71140490  0.51172548  0.04296894    -1.29400
H250        H  0.78846392  0.57636513  0.99806324     0.32200
O251        O  0.77556536  0.55752877  0.99784419    -1.31000
O252        O  0.73663957  0.41308010  0.02480185    -0.86800
O253        O  0.74782253  0.53953370  0.89862674    -0.88300
O254        O  0.65475898  0.47335168  0.03511698    -0.86900
O255        O  0.83106137  0.47445609  0.03370536    -0.86900
O256        O  0.83267497  0.55043416  0.96407605    -0.86700
O257        O  0.65435425  0.54978386  0.96360855    -0.86500
O258        O  0.69020639  0.45321344  0.92957188    -0.86800
O259        O  0.79107656  0.44557418  0.93791398    -0.86300
O260        O  0.65257828  0.47660422  0.95960212    -0.87400
O261        O  0.83020772  0.47536751  0.96109541    -0.86500
O262        O  0.69370837  0.45036293  0.06428538    -0.86900
O263        O  0.69300845  0.57416397  0.93432211    -0.86600
O264        O  0.79547594  0.57749092  0.93622779    -0.86300
O265        O  0.79305217  0.44602723  0.05951391    -0.86700
O266        O  0.73277566  0.41330079  0.97092720    -0.87000
O267        O  0.74772230  0.48559071  0.89900535    -0.88300
Zr268      Zr  0.74300158  0.46718825  0.04232996     2.83100
Zr269      Zr  0.74393752  0.55722728  0.95290659     2.83500
Zr270      Zr  0.67914022  0.51126119  0.99809094     2.84100
Zr271      Zr  0.80624747  0.51200440  0.99799196     2.83400
Zr272      Zr  0.74110911  0.46738145  0.95285705     2.84200
O273        O  0.77423638  0.51194473  0.95308241    -1.08900
O274        O  0.71020006  0.46658820  0.99803047    -1.08400
C275        C  0.73220392  0.39937336  0.99804830     1.06300
C276        C  0.74986466  0.51253594  0.88497545     1.08900
C277        C  0.66486788  0.45502065  0.05732357     1.06400
C278        C  0.82192287  0.45271279  0.05319545     1.06800
C279        C  0.82412667  0.57162053  0.94400166     1.06400
C280        C  0.66420410  0.56890424  0.94194325     1.05900
C281        C  0.66143308  0.45887228  0.93660453     1.06400
C282        C  0.82002396  0.45283622  0.94317922     1.05900
H283        H  0.69809850  0.51306795  0.93408517     0.32500
O284        O  0.71083498  0.51260495  0.95289167    -1.30000
H285        H  0.78602213  0.44797752  0.99755862     0.32600
O286        O  0.77382014  0.46689492  0.99736336    -1.31400
O287        O  0.24694705  0.60853556  0.97453708    -0.86800
O288        O  0.24263374  0.47875019  0.10080821    -0.87000
O289        O  0.19503326  0.57233579  0.06476262    -0.88700
O290        O  0.29536904  0.56943995  0.06837136    -0.87400
O291        O  0.33352260  0.54692995  0.03836173    -0.87000
O292        O  0.15702994  0.54402911  0.03869323    -0.88400
O293        O  0.24294477  0.53274077  0.10095395    -0.86900
O294        O  0.24772946  0.60799015  0.02860653    -0.86400
Zr295      Zr  0.24492343  0.55301021  0.04702189     2.84300
O296        O  0.27644377  0.50860596  0.04644566    -1.08400
O297        O  0.21289007  0.55315786  0.00228914    -1.09100
C298        C  0.24875904  0.62224759  0.00154649     1.06300
C299        C  0.24163291  0.50563874  0.11497366     1.06200
C300        C  0.16624749  0.56545983  0.05836885     1.09200
C301        C  0.32412318  0.56462794  0.06102702     1.07000
H302        H  0.20017310  0.50647951  0.06564372     0.32500
O303        O  0.21340818  0.50723515  0.04722834    -1.29400
H304        H  0.28914163  0.57346668  0.00199343     0.32200
O305        O  0.27584759  0.55489343  0.00178074    -1.31000
O306        O  0.24993506  0.40909767  0.02565127    -0.86800
O307        O  0.23951442  0.53794787  0.90154358    -0.88300
O308        O  0.15628269  0.46854165  0.03727039    -0.86900
O309        O  0.33339745  0.47491611  0.03758626    -0.86900
O310        O  0.33203416  0.54744957  0.96437834    -0.86700
O311        O  0.15451193  0.54325247  0.96714488    -0.86500
O312        O  0.19401117  0.44512737  0.93804007    -0.86800
O313        O  0.29660349  0.44988291  0.93638436    -0.86300
O314        O  0.15689277  0.47029152  0.96728628    -0.87400
O315        O  0.33406154  0.47753383  0.96419401    -0.86500
O316        O  0.19484271  0.43899568  0.06007379    -0.86900
O317        O  0.19223383  0.57393448  0.94311358    -0.86600
O318        O  0.29396210  0.57412173  0.93743126    -0.86300
O319        O  0.29594995  0.44688152  0.06467586    -0.86700
O320        O  0.24815779  0.41033658  0.97163481    -0.87000
O321        O  0.23989738  0.48399824  0.90052018    -0.88300
Zr322      Zr  0.24514637  0.46278722  0.04544299     2.83100
Zr323      Zr  0.24375947  0.55446061  0.95680683     2.83500
Zr324      Zr  0.18176465  0.50744026  0.00253843     2.84100
Zr325      Zr  0.30752381  0.51093091  0.00135652     2.83400
Zr326      Zr  0.24490859  0.46523665  0.95511525     2.84200
O327        O  0.27629415  0.51078258  0.95568661    -1.08900
O328        O  0.21361384  0.46318306  0.00044231    -1.08400
C329        C  0.25076371  0.39579878  0.99830335     1.06300
C330        C  0.23783728  0.51125984  0.88694375     1.08900
C331        C  0.16591891  0.44563611  0.05480630     1.06400
C332        C  0.32459625  0.45422055  0.05826707     1.06800
C333        C  0.32272520  0.56767997  0.94373194     1.06400
C334        C  0.16357708  0.56595695  0.94885827     1.05900
C335        C  0.16557721  0.45045766  0.94631114     1.06400
C336        C  0.32527573  0.45748285  0.94308997     1.05900
H337        H  0.19866462  0.50913780  0.93869676     0.32500
O338        O  0.21238032  0.50902727  0.95686130    -1.30000
H339        H  0.29029523  0.44724104  0.99992101     0.32600
O340        O  0.27654772  0.46519927  0.00033588    -1.31400
C341        C  0.00089732  0.70063305  0.84411975    -0.02800
C342        C  0.99088989  0.32612080  0.84448112    -0.02800
C343        C  0.49389752  0.66231907  0.80699183    -0.02800
C344        C  0.49756823  0.66543769  0.19058589    -0.02800
C345        C  0.99122231  0.31729849  0.15250644    -0.02800
C346        C  0.99438788  0.69745879  0.15262538    -0.02800
C347        C  0.48821483  0.35772804  0.80439487    -0.02800
C348        C  0.49738628  0.35636163  0.18806441    -0.02800
O349        O  0.55383057  0.43863465  0.54098206    -0.86800
O350        O  0.46779606  0.50206717  0.39801031    -0.87000
O351        O  0.48167435  0.41392672  0.46376457    -0.88700
O352        O  0.56490674  0.46914722  0.43280816    -0.87400
O353        O  0.58319331  0.51944268  0.44198799    -0.87000
O354        O  0.43845253  0.42602791  0.49307054    -0.88400
O355        O  0.49637686  0.45805094  0.40916257    -0.86900
O356        O  0.54799606  0.42417076  0.48924582    -0.86400
Zr357      Zr  0.51554991  0.46161429  0.46242509     2.84300
O358        O  0.51694279  0.51402647  0.44539866    -1.08400
O359        O  0.49498949  0.45863534  0.51333508    -1.09100
C360        C  0.55853601  0.42010647  0.51738186     1.06300
C361        C  0.47955822  0.47513838  0.39084572     1.06200
C362        C  0.45456600  0.40733606  0.47592836     1.09200
C363        C  0.58471993  0.49227627  0.42879331     1.07000
H364        H  0.45139120  0.46907218  0.44919450     0.32500
O365        O  0.46470077  0.48124145  0.46310032    -1.29400
H366        H  0.56860521  0.48331851  0.49587152     0.32200
O367        O  0.54769837  0.49154561  0.49595202    -1.31000
O368        O  0.44105734  0.58501470  0.45114792    -0.86800
O369        O  0.52295604  0.51902929  0.59576965    -0.88300
O370        O  0.39809270  0.48455736  0.47929907    -0.86900
O371        O  0.54434386  0.57551848  0.42992367    -0.86900
O372        O  0.59543514  0.53882520  0.51344836    -0.86700
O373        O  0.44853108  0.44636484  0.56307978    -0.86500
O374        O  0.42556733  0.55531095  0.55720108    -0.86800
O375        O  0.51186553  0.60862616  0.53095630    -0.86300
O376        O  0.40846962  0.50453863  0.54837501    -0.87400
O377        O  0.55447160  0.59656285  0.50075921    -0.86500
O378        O  0.41257891  0.51896610  0.44013249    -0.86900
O379        O  0.49918168  0.45238503  0.58011890    -0.86600
O380        O  0.57966391  0.50629745  0.55362734    -0.86300
O381        O  0.49429488  0.56775799  0.41149073    -0.86700
O382        O  0.44925903  0.60155479  0.50199344    -0.87000
O383        O  0.49432738  0.56312067  0.58467378    -0.88300
Zr384      Zr  0.46628954  0.53364034  0.44644438     2.83100
Zr385      Zr  0.52656246  0.48893650  0.54666344     2.83500
Zr386      Zr  0.44428687  0.47850547  0.51407020     2.84100
Zr387      Zr  0.54878900  0.54419846  0.47909635     2.83400
Zr388      Zr  0.47708864  0.56144711  0.53056320     2.84200
O389        O  0.52792172  0.54145509  0.53006286    -1.08900
O390        O  0.44506175  0.53124249  0.49709518    -1.08400
C391        C  0.43915898  0.60533975  0.47364731     1.06300
C392        C  0.51010845  0.54533091  0.60324367     1.08900
C393        C  0.39257105  0.50101081  0.45409121     1.06400
C394        C  0.52180247  0.58006248  0.40993249     1.06800
C395        C  0.60030715  0.52336402  0.53941144     1.06400
C396        C  0.47147453  0.44051750  0.58232758     1.05900
C397        C  0.40588858  0.53193637  0.56078560     1.06400
C398        C  0.53884631  0.61520595  0.51845090     1.05900
H399        H  0.46773947  0.50756265  0.56876229     0.32500
O400        O  0.47592715  0.50884359  0.54764094    -1.30000
H401        H  0.49896840  0.58535102  0.47246457     0.32600
O402        O  0.49808743  0.56382075  0.47974832    -1.31400
O403        O  0.06523072  0.95332098  0.04030556    -0.86800
O404        O  0.00021503  0.03688723  0.89507777    -0.87000
O405        O  0.03945638  0.93876518  0.93844856    -0.88700
O406        O  0.08849494  0.02688860  0.96571148    -0.87400
O407        O  0.07439630  0.06934113  0.99536365    -0.87000
O408        O  0.99030799  0.91966103  0.94972382    -0.88400
O409        O  0.04413159  0.00893963  0.90768144    -0.86900
O410        O  0.07915902  0.95981754  0.98854592    -0.86400
Zr411      Zr  0.04182790  0.99210515  0.96204652     2.84300
O412        O  0.02034074  0.04250802  0.96093842    -1.08400
O413        O  0.01227667  0.96019427  0.99590639    -1.09100
C414        C  0.08345371  0.94863000  0.01635806     1.06300
C415        C  0.02698626  0.02472739  0.88842247     1.06200
C416        C  0.01801625  0.91682335  0.93858722     1.09200
C417        C  0.09436911  0.05327808  0.97997269     1.07000
H418        H  0.99039946  0.97976400  0.92337341     0.32500
O419        O  0.99018363  0.98884364  0.94415360    -1.29400
H420        H  0.06464651  0.01428207  0.02092690     0.32200
O421        O  0.04347176  0.01314706  0.01304369    -1.31000
O422        O  0.91552977  0.06222511  0.94847828    -0.86800
O423        O  0.98256244  0.98231251  0.09519611    -0.88300
O424        O  0.93405130  0.95742479  0.92610344    -0.86900
O425        O  0.01625330  0.10870879  0.97637846    -0.86900
O426        O  0.04721718  0.06301483  0.06414078    -0.86700
O427        O  0.96588811  0.91127488  0.01327606    -0.86500
O428        O  0.89584611  0.99486107  0.02787935    -0.86800
O429        O  0.94487087  0.08121309  0.05372143    -0.86300
O430        O  0.90726520  0.95260412  0.99645468    -0.87400
O431        O  0.99298983  0.10198106  0.04088124    -0.86500
O432        O  0.93943791  0.00753977  0.90613975    -0.86900
O433        O  0.99850540  0.92672335  0.05355993    -0.86600
O434        O  0.04440346  0.01223674  0.08293920    -0.86300
O435        O  0.98280895  0.09333012  0.93679448    -0.86700
O436        O  0.90258277  0.05635336  0.00055543    -0.87000
O437        O  0.93922901  0.01118222  0.08289915    -0.88300
Zr438      Zr  0.96831369  0.03902441  0.94332111     2.83100
Zr439      Zr  0.01446528  0.98063395  0.04678635     2.83500
Zr440      Zr  0.96050853  0.95723633  0.97821206     2.84100
Zr441      Zr  0.02145228  0.06333816  0.01198938     2.83400
Zr442      Zr  0.94211202  0.02871460  0.02883589     2.84200
O443        O  0.99345910  0.03128759  0.04685635    -1.08900
O444        O  0.93928044  0.00744791  0.97791150    -1.08400
C445        C  0.89664416  0.06504759  0.97216645     1.06300
C446        C  0.95585244  0.99462291  0.10193883     1.08900
C447        C  0.93067794  0.97855562  0.90422610     1.06400
C448        C  0.00013846  0.11381149  0.95101988     1.06800
C449        C  0.05228931  0.04143067  0.08513532     1.06400
C450        C  0.98106772  0.90636420  0.03928543     1.05900
C451        C  0.88898308  0.96878090  0.01388878     1.06400
C452        C  0.96575049  0.10364682  0.05335274     1.05900
H453        H  0.95024950  0.96469425  0.04309138     0.32500
O454        O  0.96251573  0.97796894  0.02922014    -1.30000
H455        H  0.96081336  0.08126825  0.99318440     0.32600
O456        O  0.96994118  0.06064793  0.99389558    -1.31400
C457        C  0.49131884  0.37571602  0.21827739    -0.01600
C458        C  0.49357300  0.40882166  0.21720552    -0.09600
C459        C  0.48749618  0.42715166  0.24361866    -0.18500
C460        C  0.47827802  0.41311606  0.27235081     0.03900
C461        C  0.47346335  0.37997377  0.27286717     0.18100
C462        C  0.47936178  0.36190035  0.24606101    -0.19900
C463        C  0.46329332  0.36481978  0.30036213    -0.21200
C464        C  0.45966874  0.38163300  0.32799163    -0.19700
C465        C  0.46599177  0.41399984  0.32870490     0.19500
C466        C  0.47442586  0.43052017  0.30076754     0.01600
C467        C  0.48003389  0.46342187  0.30296833    -0.14400
C468        C  0.47954050  0.47869412  0.33211100    -0.12200
C469        C  0.47338655  0.46162949  0.35961491     0.01200
C470        C  0.46547275  0.42963307  0.35760829    -0.24300
H471        H  0.50055422  0.42066726  0.19568327     0.09200
H472        H  0.49047814  0.45222146  0.24083865     0.12700
H473        H  0.47413318  0.33695423  0.24714872     0.11400
H474        H  0.45907698  0.33960696  0.30077289     0.12600
H475        H  0.45282534  0.36905518  0.34918720     0.11700
H476        H  0.48604968  0.47774372  0.28283938     0.08800
H477        H  0.48576396  0.50346159  0.33336251     0.12000
H478        H  0.46040169  0.41649852  0.37900819     0.13900
C479        C  0.46717990  0.41963149  0.61016418    -0.01600
C480        C  0.44104921  0.42171838  0.62970041    -0.09600
C481        C  0.44194233  0.40959324  0.66055302    -0.18500
C482        C  0.46933991  0.39544295  0.67282513     0.03900
C483        C  0.49456078  0.39096131  0.65181827     0.18100
C484        C  0.49303247  0.40253350  0.62089267    -0.19900
C485        C  0.52197536  0.37654879  0.66221689    -0.21200
C486        C  0.52540127  0.36736716  0.69347306    -0.19700
C487        C  0.50166645  0.37269678  0.71525690     0.19500
C488        C  0.47322531  0.38659764  0.70524560     0.01600
C489        C  0.45030932  0.39172888  0.72829346    -0.14400
C490        C  0.45548540  0.38382801  0.75982973    -0.12200
C491        C  0.48391531  0.37056285  0.77021508     0.01200
C492        C  0.50641091  0.36434008  0.74705351    -0.24300
H493        H  0.42078947  0.43468146  0.62197979     0.09200
H494        H  0.42136608  0.41285016  0.67464463     0.12700
H495        H  0.51321972  0.40031814  0.60572534     0.11400
H496        H  0.54122688  0.37295948  0.64618044     0.12600
H497        H  0.54710016  0.35668064  0.70081173     0.11700
H498        H  0.42798926  0.40178044  0.72266820     0.08800
H499        H  0.43618373  0.38726178  0.77570247     0.12000
H500        H  0.52781655  0.35279444  0.75394352     0.13900
C501        C  0.97929345  0.87527731  0.05480973    -0.01600
C502        C  0.97468200  0.84755368  0.03773132    -0.09600
C503        C  0.97801555  0.81826923  0.05244162    -0.18500
C504        C  0.98609745  0.81602242  0.08480196     0.03900
C505        C  0.98911132  0.84433796  0.10220108     0.18100
C506        C  0.98549778  0.87336518  0.08723099    -0.19900
C507        C  0.99639185  0.84367250  0.13434643    -0.21200
C508        C  0.00081171  0.81525495  0.14977440    -0.19700
C509        C  0.99808009  0.78685954  0.13339340     0.19500
C510        C  0.99112418  0.78683621  0.10062081     0.01600
C511        C  0.98984230  0.75761093  0.08509409    -0.14400
C512        C  0.99277858  0.72958507  0.10183581    -0.12200
C513        C  0.99656155  0.72931993  0.13481385     0.01200
C514        C  0.00159631  0.75844653  0.14986427    -0.24300
H515        H  0.96953686  0.84846611  0.01277475     0.09200
H516        H  0.97442163  0.79788741  0.03779830     0.12700
H517        H  0.98841017  0.89475420  0.10086440     0.11400
H518        H  0.99870543  0.86530177  0.14765673     0.12600
H519        H  0.00616865  0.81548739  0.17474474     0.11700
H520        H  0.98609157  0.75553897  0.06008877     0.08800
H521        H  0.99020937  0.70772437  0.08904563     0.12000
H522        H  0.00753227  0.75946009  0.17461258     0.13900
C523        C  0.98402820  0.28481415  0.13679261    -0.01600
C524        C  0.98277428  0.28241673  0.10373663    -0.09600
C525        C  0.97611419  0.25383183  0.08880011    -0.18500
C526        C  0.96943716  0.22620092  0.10634478     0.03900
C527        C  0.96857485  0.22876424  0.13957568     0.18100
C528        C  0.97517497  0.25765886  0.15424786    -0.19900
C529        C  0.96133328  0.20235958  0.15819378    -0.21200
C530        C  0.95608657  0.17306821  0.14453778    -0.19700
C531        C  0.95780567  0.16942196  0.11189024     0.19500
C532        C  0.96390141  0.19609203  0.09224629     0.01600
C533        C  0.96530510  0.19121019  0.05942350    -0.14400
C534        C  0.96299087  0.16100414  0.04694612    -0.12200
C535        C  0.95874293  0.13469771  0.06649848     0.01200
C536        C  0.95501098  0.13903994  0.09886030    -0.24300
H537        H  0.98741528  0.30295986  0.08921921     0.09200
H538        H  0.97639062  0.25421600  0.06344502     0.12700
H539        H  0.97272297  0.25846530  0.17951077     0.11400
H540        H  0.96035337  0.20423034  0.18361661     0.12600
H541        H  0.95130898  0.15299843  0.15968612     0.11700
H542        H  0.96946216  0.21002982  0.04283493     0.08800
H543        H  0.96621819  0.15794668  0.02183773     0.12000
H544        H  0.95229857  0.11863716  0.11407771     0.13900
C545        C  0.50229770  0.65274843  0.22474955    -0.01600
C546        C  0.48040253  0.66015080  0.24813539    -0.09600
C547        C  0.48486836  0.65142891  0.27957261    -0.18500
C548        C  0.51150948  0.63450000  0.28910062     0.03900
C549        C  0.53320152  0.62606072  0.26563491     0.18100
C550        C  0.52923989  0.63630811  0.23446359    -0.19900
C551        C  0.55881744  0.60729639  0.27334174    -0.21200
C552        C  0.56304036  0.59626199  0.30391757    -0.19700
C553        C  0.54261173  0.60496467  0.32785560     0.19500
C554        C  0.51714753  0.62511876  0.32093074     0.01600
C555        C  0.49834511  0.63488480  0.34616659    -0.14400
C556        C  0.50282089  0.62282013  0.37634102    -0.12200
C557        C  0.52606846  0.60071822  0.38245138     0.01200
C558        C  0.54673421  0.59275469  0.35845933    -0.24300
H559        H  0.45965433  0.67313240  0.24196513     0.09200
H560        H  0.46671585  0.65776599  0.29577031     0.12700
H561        H  0.54791882  0.63158171  0.21824731     0.11400
H562        H  0.57531296  0.60046461  0.25541242     0.12600
H563        H  0.58252698  0.58099885  0.30891135     0.11700
H564        H  0.47960142  0.65130654  0.34321031     0.08800
H565        H  0.48653410  0.62911473  0.39468262     0.12000
H566        H  0.56445547  0.57531361  0.36299959     0.13900
C567        C  0.49221262  0.64745110  0.77360786    -0.01600
C568        C  0.46815266  0.62658175  0.76387046    -0.09600
C569        C  0.47127550  0.60842674  0.73677603    -0.18500
C570        C  0.49780619  0.61171986  0.71738742     0.03900
C571        C  0.51933282  0.63648901  0.72416921     0.18100
C572        C  0.51652170  0.65384752  0.75203545    -0.19900
C573        C  0.54387488  0.64331362  0.70341496    -0.21200
C574        C  0.54751094  0.62581793  0.67608981    -0.19700
C575        C  0.52774325  0.60004121  0.66982380     0.19500
C576        C  0.50322703  0.59196963  0.69097300     0.01600
C577        C  0.48545060  0.56428585  0.68496813    -0.14400
C578        C  0.49008271  0.54694783  0.65755196    -0.12200
C579        C  0.51250233  0.55666864  0.63560980     0.01200
C580        C  0.53176139  0.58271732  0.64212344    -0.24300
H581        H  0.44707795  0.62322283  0.77743892     0.09200
H582        H  0.45238002  0.59224346  0.73126489     0.12700
H583        H  0.53445289  0.67112191  0.75800323     0.11400
H584        H  0.56013478  0.66252491  0.70816325     0.12600
H585        H  0.56626707  0.63210051  0.66007312     0.11700
H586        H  0.46767652  0.55573223  0.70093051     0.08800
H587        H  0.47482399  0.52698898  0.65254374     0.12000
H588        H  0.54889874  0.59035122  0.62483883     0.13900
C589        C  0.99599349  0.29282277  0.85835611    -0.01600
C590        C  0.02325945  0.28467610  0.87520061    -0.09600
C591        C  0.02617140  0.25527458  0.88925933    -0.18500
C592        C  0.00207181  0.23251851  0.88675247     0.03900
C593        C  0.97630548  0.23928376  0.86671964     0.18100
C594        C  0.97402095  0.26874234  0.85210405    -0.19900
C595        C  0.95236919  0.21703024  0.86224242    -0.21200
C596        C  0.95283010  0.18860040  0.87831761    -0.19700
C597        C  0.97726846  0.18183418  0.89914873     0.19500
C598        C  0.00245549  0.20345408  0.90355221     0.01600
C599        C  0.02635558  0.19534954  0.92523558    -0.14400
C600        C  0.02540661  0.16664240  0.94141419    -0.12200
C601        C  0.00073546  0.14531525  0.93640040     0.01200
C602        C  0.97655134  0.15340148  0.91561414    -0.24300
H603        H  0.04283240  0.30083490  0.87775086     0.09200
H604        H  0.04750819  0.25118873  0.90209649     0.12700
H605        H  0.95396941  0.27376459  0.83731068     0.11400
H606        H  0.93283030  0.22191246  0.84674222     0.12600
H607        H  0.93370622  0.17195728  0.87476162     0.11700
H608        H  0.04600343  0.21067328  0.93029909     0.08800
H609        H  0.04430186  0.16088646  0.95737725     0.12000
H610        H  0.95695035  0.13732183  0.91197553     0.13900
C611        C  0.00272742  0.73471469  0.85759385    -0.01600
C612        C  0.98271444  0.74528265  0.88147198    -0.09600
C613        C  0.98789160  0.77408222  0.89614849    -0.18500
C614        C  0.01184280  0.79476742  0.88600327     0.03900
C615        C  0.02869857  0.78691364  0.85869533     0.18100
C616        C  0.02487679  0.75676456  0.84542460    -0.19900
C617        C  0.04891169  0.80937207  0.84496107    -0.21200
C618        C  0.05189390  0.83965137  0.85766653    -0.19700
C619        C  0.03672036  0.84726308  0.88579166     0.19500
C620        C  0.01817978  0.82386697  0.90117311     0.01600
C621        C  0.00697010  0.83016698  0.93148498    -0.14400
C622        C  0.01037789  0.85990632  0.94429772    -0.12200
C623        C  0.02428481  0.88468001  0.92719682     0.01200
C624        C  0.03903675  0.87799886  0.89852140    -0.24300
H625        H  0.96290168  0.73160155  0.88955461     0.09200
H626        H  0.97187219  0.78032870  0.91460782     0.12700
H627        H  0.03948503  0.75018895  0.82581129     0.11400
H628        H  0.06160820  0.80385298  0.82371522     0.12600
H629        H  0.06653717  0.85695673  0.84578980     0.11700
H630        H  0.99549109  0.81239542  0.94576008     0.08800
H631        H  0.00032726  0.86409750  0.96723695     0.12000
H632        H  0.05076300  0.89671747  0.88556298     0.13900
C633        C  0.14044568  0.43236759  0.93120457    -0.01600
C634        C  0.11558950  0.42156041  0.94966874    -0.09600
C635        C  0.09026612  0.40606959  0.93605534    -0.18500
C636        C  0.08882657  0.40121959  0.90317284     0.03900
C637        C  0.11405697  0.41258781  0.88440907     0.18100
C638        C  0.13990296  0.42760373  0.89863431    -0.19900
C639        C  0.11308846  0.40919214  0.85164415    -0.21200
C640        C  0.08769946  0.39431118  0.83712913    -0.19700
C641        C  0.06307115  0.38184361  0.85511782     0.19500
C642        C  0.06333721  0.38527218  0.88838535     0.01600
C643        C  0.03837533  0.37200743  0.90562689    -0.14400
C644        C  0.01539030  0.35426349  0.89082110    -0.12200
C645        C  0.01566105  0.34921737  0.85806830     0.01200
C646        C  0.03868822  0.36504321  0.84016528    -0.24300
H647        H  0.11574770  0.42517047  0.97493171     0.09200
H648        H  0.07214290  0.39864148  0.95204299     0.12700
H649        H  0.15906188  0.43650552  0.88433858     0.11400
H650        H  0.13208806  0.41808459  0.83716271     0.12600
H651        H  0.08770757  0.39184363  0.81173965     0.11700
H652        H  0.03634997  0.37371750  0.93079833     0.08800
H653        H  0.99777163  0.34306658  0.90546583     0.12000
H654        H  0.03857255  0.36370418  0.81477387     0.13900
C655        C  0.14205844  0.42583825  0.07079125    -0.01600
C656        C  0.12528207  0.43811577  0.09594208    -0.09600
C657        C  0.10359805  0.41944866  0.11238441    -0.18500
C658        C  0.09763597  0.38774095  0.10382595     0.03900
C659        C  0.11410622  0.37564157  0.07758990     0.18100
C660        C  0.13645901  0.39454823  0.06168588    -0.19900
C661        C  0.10789343  0.34489060  0.06726570    -0.21200
C662        C  0.08524648  0.32612967  0.08201800    -0.19700
C663        C  0.06845275  0.33743395  0.10777888     0.19500
C664        C  0.07514643  0.36801827  0.11963282     0.01600
C665        C  0.05874682  0.37763064  0.14662032    -0.14400
C666        C  0.03395264  0.35956103  0.15858705    -0.12200
C667        C  0.02433320  0.33107939  0.14428027     0.01200
C668        C  0.04407281  0.31886456  0.12084841    -0.24300
H669        H  0.12929856  0.46225773  0.10319396     0.09200
H670        H  0.09148547  0.43069167  0.13136146     0.12700
H671        H  0.14925727  0.38508211  0.04196617     0.11400
H672        H  0.12021523  0.33547878  0.04723387     0.12600
H673        H  0.08045029  0.30278595  0.07283834     0.11700
H674        H  0.06378552  0.39956149  0.15836801     0.08800
H675        H  0.02044158  0.36927620  0.17763382     0.12000
H676        H  0.03987914  0.29568846  0.11131862     0.13900
C677        C  0.02166446  0.67786158  0.13915129    -0.01600
C678        C  0.05307573  0.68607845  0.14546988    -0.09600
C679        C  0.07763284  0.66805876  0.13387674    -0.18500
C680        C  0.07171448  0.64211404  0.11382209     0.03900
C681        C  0.04037679  0.63621353  0.10444416     0.18100
C682        C  0.01621924  0.65417016  0.11649540    -0.19900
C683        C  0.03308607  0.61258455  0.08267056    -0.21200
C684        C  0.05642154  0.59442370  0.06995123    -0.19700
C685        C  0.08751212  0.59904596  0.07918185     0.19500
C686        C  0.09565954  0.62255757  0.10165026     0.01600
C687        C  0.12731691  0.62525259  0.11095978    -0.14400
C688        C  0.15003456  0.60631546  0.09743496    -0.12200
C689        C  0.14196315  0.58404230  0.07432474     0.01200
C690        C  0.11050973  0.58032850  0.06574528    -0.24300
H691        H  0.05861707  0.70622294  0.16011539     0.09200
H692        H  0.10100038  0.67535547  0.14043780     0.12700
H693        H  0.99309461  0.64997136  0.10695497     0.11400
H694        H  0.00913487  0.60820199  0.07528543     0.12600
H695        H  0.05006814  0.57650555  0.05289656     0.11700
H696        H  0.13514161  0.64165796  0.12872804     0.08800
H697        H  0.17409292  0.60938697  0.10497460     0.12000
H698        H  0.10380372  0.56306773  0.04814039     0.13900
C699        C  0.03046712  0.68178803  0.85349965    -0.01600
C700        C  0.03172974  0.64957344  0.84585142    -0.09600
C701        C  0.05360388  0.62978022  0.85982792    -0.18500
C702        C  0.07561231  0.64152313  0.88183598     0.03900
C703        C  0.07664357  0.67446020  0.88709633     0.18100
C704        C  0.05412931  0.69399117  0.87350280    -0.19900
C705        C  0.09955546  0.68771652  0.90682327    -0.21200
C706        C  0.12130064  0.66882949  0.92176893    -0.19700
C707        C  0.11983835  0.63613267  0.91838915     0.19500
C708        C  0.09653075  0.62186182  0.89895988     0.01600
C709        C  0.09456646  0.58857405  0.89841648    -0.14400
C710        C  0.11561031  0.57035295  0.91564752    -0.12200
C711        C  0.13952844  0.58475647  0.93316946     0.01200
C712        C  0.14143950  0.61757551  0.93459809    -0.24300
H713        H  0.01436003  0.63929604  0.83019876     0.09200
H714        H  0.05256646  0.60532674  0.85318655     0.12700
H715        H  0.05457543  0.71841007  0.88031542     0.11400
H716        H  0.10069111  0.71289898  0.91071046     0.12600
H717        H  0.13890268  0.67981359  0.93669978     0.11700
H718        H  0.07670812  0.57604018  0.88534389     0.08800
H719        H  0.11376756  0.54492742  0.91455644     0.12000
H720        H  0.15967904  0.62866225  0.94871043     0.13900
C721        C  0.35021260  0.44247738  0.92493578    -0.01600
C722        C  0.37629681  0.46028140  0.91541958    -0.09600
C723        C  0.39930622  0.44702180  0.89675093    -0.18500
C724        C  0.39718347  0.41511848  0.88751206     0.03900
C725        C  0.37202487  0.39650350  0.89944514     0.18100
C726        C  0.34838528  0.41046279  0.91730037    -0.19900
C727        C  0.37068544  0.36414226  0.89341739    -0.21200
C728        C  0.39371697  0.34994020  0.87549928    -0.19700
C729        C  0.41776055  0.36800497  0.86180774     0.19500
C730        C  0.41923855  0.40100720  0.86703697     0.01600
C731        C  0.44202874  0.41874163  0.85070890    -0.14400
C732        C  0.46276453  0.40431271  0.83048621    -0.12200
C733        C  0.46258284  0.37141625  0.82604019     0.01200
C734        C  0.44002192  0.35337383  0.84252927    -0.24300
H735        H  0.37856036  0.48483019  0.92185513     0.09200
H736        H  0.41871219  0.46217513  0.89034799     0.12700
H737        H  0.32874860  0.39635473  0.92563106     0.11400
H738        H  0.35184806  0.34966876  0.90285718     0.12600
H739        H  0.39217431  0.32479251  0.87155035     0.11700
H740        H  0.44376008  0.44401943  0.85220649     0.08800
H741        H  0.47946627  0.41913678  0.81805568     0.12000
H742        H  0.43940048  0.32804534  0.84059219     0.13900
C743        C  0.46628571  0.65096803  0.82809390    -0.01600
C744        C  0.44515076  0.67118118  0.84296786    -0.09600
C745        C  0.42148593  0.65926706  0.86262536    -0.18500
C746        C  0.41863832  0.62667628  0.86909826     0.03900
C747        C  0.44107142  0.60655616  0.85568820     0.18100
C748        C  0.46396711  0.61861928  0.83545591    -0.19900
C749        C  0.44077022  0.57434389  0.86255185    -0.21200
C750        C  0.41828838  0.56145235  0.88232564    -0.19700
C751        C  0.39509120  0.58033618  0.89500607     0.19500
C752        C  0.39462969  0.61319954  0.88848763     0.01600
C753        C  0.36970761  0.63075737  0.90098880    -0.14400
C754        C  0.34609919  0.61605718  0.91874992    -0.12200
C755        C  0.34721544  0.58378695  0.92526894     0.01200
C756        C  0.37193473  0.56624549  0.91368855    -0.24300
H757        H  0.44691961  0.69639512  0.84025272     0.09200
H758        H  0.40620580  0.67621724  0.87306156     0.12700
H759        H  0.48047233  0.60253258  0.82521718     0.11400
H760        H  0.45811354  0.55898746  0.85259199     0.12600
H761        H  0.41867259  0.53640121  0.88722114     0.11700
H762        H  0.36745668  0.65565073  0.89678512     0.08800
H763        H  0.32708922  0.62997039  0.92767932     0.12000
H764        H  0.37256140  0.54119054  0.91844954     0.13900
C765        C  0.34801149  0.58000197  0.08089117    -0.01600
C766        C  0.34984117  0.57220795  0.11282905    -0.09600
C767        C  0.37233832  0.58634306  0.13226336    -0.18500
C768        C  0.39347411  0.60931250  0.12031300     0.03900
C769        C  0.39057739  0.61801660  0.08801897     0.18100
C770        C  0.36832354  0.60294233  0.06853182    -0.19900
C771        C  0.40989026  0.64170995  0.07541845    -0.21200
C772        C  0.43245643  0.65655635  0.09402266    -0.19700
C773        C  0.43671780  0.64762922  0.12551327     0.19500
C774        C  0.41738385  0.62388488  0.13914511     0.01600
C775        C  0.42350166  0.61508846  0.17070095    -0.14400
C776        C  0.44811482  0.62881776  0.18779435    -0.12200
C777        C  0.46735298  0.65244583  0.17443891     0.01200
C778        C  0.46091775  0.66171632  0.14312955    -0.24300
H779        H  0.33394181  0.55475208  0.12272785     0.09200
H780        H  0.37233651  0.57903636  0.15657868     0.12700
H781        H  0.36641761  0.60938585  0.04386546     0.11400
H782        H  0.40757931  0.64876296  0.05097410     0.12600
H783        H  0.44713911  0.67471447  0.08349990     0.11700
H784        H  0.41040662  0.59675146  0.18254134     0.08800
H785        H  0.45257322  0.61958591  0.21106685     0.12000
H786        H  0.47579761  0.67941814  0.13208476     0.13900
C787        C  0.34918598  0.43757520  0.07610613    -0.01600
C788        C  0.34119666  0.41456156  0.09857917    -0.09600
C789        C  0.36421720  0.39925538  0.11593339    -0.18500
C790        C  0.39620659  0.40660277  0.11147637     0.03900
C791        C  0.40418416  0.42942820  0.08814374     0.18100
C792        C  0.38082645  0.44461479  0.07088133    -0.19900
C793        C  0.43546087  0.43727220  0.08232240    -0.21200
C794        C  0.45909939  0.42319009  0.09946296    -0.19700
C795        C  0.45201155  0.40113395  0.12303039     0.19500
C796        C  0.42055675  0.39249000  0.12950034     0.01600
C797        C  0.41491021  0.37113250  0.15452496    -0.14400
C798        C  0.43951732  0.35917284  0.17243891    -0.12200
C799        C  0.47085892  0.36677241  0.16543182     0.01200
C800        C  0.47641520  0.38856986  0.14080867    -0.24300
H801        H  0.31696394  0.40831938  0.10295243     0.09200
H802        H  0.35620483  0.38179032  0.13261570     0.12700
H803        H  0.38742543  0.46217732  0.05345106     0.11400
H804        H  0.44169265  0.45456692  0.06450751     0.12600
H805        H  0.48312293  0.42993230  0.09451769     0.11700
H806        H  0.39169809  0.36396589  0.16152576     0.08800
H807        H  0.43401265  0.34408028  0.19232537     0.12000
H808        H  0.49970454  0.39760646  0.13622885     0.13900
C809        C  0.64213292  0.43791114  0.07699409    -0.01600
C810        C  0.62039170  0.41719487  0.06343580    -0.09600
C811        C  0.60060159  0.39894679  0.08243390    -0.18500
C812        C  0.60146320  0.40174135  0.11564484     0.03900
C813        C  0.62302939  0.42356254  0.12916924     0.18100
C814        C  0.64381458  0.44058897  0.10985433    -0.19900
C815        C  0.62286942  0.42903519  0.16169386    -0.21200
C816        C  0.60006328  0.41505127  0.18068873    -0.19700
C817        C  0.57804046  0.39400344  0.16781445     0.19500
C818        C  0.58013364  0.38529326  0.13566259     0.01600
C819        C  0.56025502  0.36096062  0.12475459    -0.14400
C820        C  0.53583002  0.34970162  0.14336087    -0.12200
C821        C  0.52969427  0.36308860  0.17295783     0.01200
C822        C  0.55301136  0.38274021  0.18629699    -0.24300
H823        H  0.61914584  0.41467765  0.03808147     0.09200
H824        H  0.58401503  0.38377593  0.07047908     0.12700
H825        H  0.66076262  0.45672357  0.12029154     0.11400
H826        H  0.63939453  0.44551442  0.17220674     0.12600
H827        H  0.59923833  0.42123659  0.20540043     0.11700
H828        H  0.56261060  0.35080387  0.10166132     0.08800
H829        H  0.51972605  0.33255867  0.13330175     0.12000
H830        H  0.55119339  0.39050610  0.21043311     0.13900
C831        C  0.64063506  0.58362760  0.07421174    -0.01600
C832        C  0.64199600  0.61627518  0.07841481    -0.09600
C833        C  0.61926825  0.63140418  0.09619469    -0.18500
C834        C  0.59493000  0.61399238  0.11095250     0.03900
C835        C  0.59463293  0.58067295  0.10741185     0.18100
C836        C  0.61692709  0.56601304  0.08868213    -0.19900
C837        C  0.57228821  0.56201595  0.12283924    -0.21200
C838        C  0.55000037  0.57569157  0.14170495    -0.19700
C839        C  0.54911073  0.60837573  0.14500710     0.19500
C840        C  0.57117753  0.62816471  0.12949706     0.01600
C841        C  0.56808451  0.66110594  0.13294725    -0.14400
C842        C  0.54468625  0.67370479  0.15197129    -0.12200
C843        C  0.52395401  0.65388077  0.16876053     0.01200
C844        C  0.52606707  0.62120845  0.16392519    -0.24300
H845        H  0.66049571  0.63016082  0.06756194     0.09200
H846        H  0.62162802  0.65658651  0.09843219     0.12700
H847        H  0.61636086  0.54062899  0.08598823     0.11400
H848        H  0.57220001  0.53662581  0.12050458     0.12600
H849        H  0.53314104  0.56057436  0.15361132     0.11700
H850        H  0.58309548  0.67770647  0.12080569     0.08800
H851        H  0.54289466  0.69899346  0.15296235     0.12000
H852        H  0.50975691  0.60547603  0.17584548     0.13900
C853        C  0.64069913  0.58414016  0.92226231    -0.01600
C854        C  0.63883769  0.57553625  0.89067897    -0.09600
C855        C  0.61646428  0.58850591  0.87097698    -0.18500
C856        C  0.59529810  0.61094821  0.88232997     0.03900
C857        C  0.59850009  0.62110343  0.91406105     0.18100
C858        C  0.62072879  0.60707870  0.93403721    -0.19900
C859        C  0.57963223  0.64521776  0.92534488    -0.21200
C860        C  0.55749970  0.65919435  0.90577802    -0.19700
C861        C  0.55292335  0.64857864  0.87486042     0.19500
C862        C  0.57137529  0.62387039  0.86305735     0.01600
C863        C  0.56440120  0.61216936  0.83283333    -0.14400
C864        C  0.54087899  0.62506978  0.81453083    -0.12200
C865        C  0.52319044  0.65064229  0.82519626     0.01200
C866        C  0.52941354  0.66181773  0.85593376    -0.24300
H867        H  0.65464693  0.55827708  0.88125699     0.09200
H868        H  0.61682803  0.58094021  0.84680901     0.12700
H869        H  0.62284968  0.61426188  0.95843699     0.11400
H870        H  0.58217669  0.65347977  0.94934158     0.12600
H871        H  0.54341855  0.67795475  0.91509689     0.11700
H872        H  0.57574363  0.59196636  0.82310746     0.08800
H873        H  0.53579316  0.61325886  0.79262026     0.12000
H874        H  0.51508615  0.68031546  0.86542630     0.13900
C875        C  0.51907259  0.36891664  0.82121480    -0.01600
C876        C  0.52418594  0.35871843  0.85246507    -0.09600
C877        C  0.54729940  0.37226566  0.87162717    -0.18500
C878        C  0.56700127  0.39669545  0.86040513     0.03900
C879        C  0.56376227  0.40569875  0.82829916     0.18100
C880        C  0.53966394  0.39243670  0.80931075    -0.19900
C881        C  0.58434586  0.42832703  0.81554990    -0.21200
C882        C  0.60814029  0.44185343  0.83388484    -0.19700
C883        C  0.61111494  0.43433709  0.86593897     0.19500
C884        C  0.58988916  0.41236452  0.87987247     0.01600
C885        C  0.59194112  0.40769205  0.91286320    -0.14400
C886        C  0.61468076  0.42337519  0.93101325    -0.12200
C887        C  0.63670518  0.44357080  0.91698220     0.01200
C888        C  0.63482938  0.44896185  0.88432961    -0.24300
H889        H  0.50897947  0.34082992  0.86266385     0.09200
H890        H  0.54923199  0.36304171  0.89522459     0.12700
H891        H  0.53637523  0.40173501  0.78583997     0.11400
H892        H  0.58229327  0.43533637  0.79107341     0.12600
H893        H  0.62392436  0.45884595  0.82305441     0.11700
H894        H  0.57578420  0.39258554  0.92542682     0.08800
H895        H  0.61543569  0.41923476  0.95619375     0.12000
H896        H  0.65139192  0.46514025  0.87339628     0.13900
C897        C  0.84659424  0.43387606  0.06901404    -0.01600
C898        C  0.87803613  0.44307485  0.06617748    -0.09600
C899        C  0.90173334  0.42540148  0.07977085    -0.18500
C900        C  0.89496952  0.39743996  0.09675098     0.03900
C901        C  0.86310823  0.38835484  0.10033118     0.18100
C902        C  0.83929492  0.40648494  0.08645638    -0.19900
C903        C  0.85533476  0.36122960  0.11770569    -0.21200
C904        C  0.87855176  0.34314802  0.13180423    -0.19700
C905        C  0.91021249  0.35139579  0.12848752     0.19500
C906        C  0.91872913  0.37837147  0.11045423     0.01600
C907        C  0.95075277  0.38473356  0.10611515    -0.14400
C908        C  0.97338789  0.36586514  0.11966556    -0.12200
C909        C  0.96565284  0.33989327  0.13925193     0.01200
C910        C  0.93345226  0.33262498  0.14264592    -0.24300
H911        H  0.88455088  0.46422874  0.05333669     0.09200
H912        H  0.92512167  0.43457696  0.07675436     0.12700
H913        H  0.81509569  0.39904331  0.08902973     0.11400
H914        H  0.83110425  0.35404637  0.12058563     0.12600
H915        H  0.87169046  0.32245728  0.14523325     0.11700
H916        H  0.95930829  0.40363736  0.09139315     0.08800
H917        H  0.99708825  0.37170323  0.11315588     0.12000
H918        H  0.92652774  0.31190502  0.15601533     0.13900
C919        C  0.84322596  0.43299679  0.92803766    -0.01600
C920        C  0.84527950  0.40132123  0.93657895    -0.09600
C921        C  0.86696049  0.38191617  0.92217375    -0.18500
C922        C  0.88695386  0.39369321  0.89825156     0.03900
C923        C  0.88385812  0.42573835  0.88904456     0.18100
C924        C  0.86244307  0.44515376  0.90430803    -0.19900
C925        C  0.90212611  0.43820626  0.86464165    -0.21200
C926        C  0.92391558  0.41971659  0.84951127    -0.19700
C927        C  0.92839695  0.38847969  0.85881402     0.19500
C928        C  0.91000563  0.37499176  0.88327328     0.01600
C929        C  0.91633206  0.34379815  0.89249055    -0.14400
C930        C  0.94066213  0.32717293  0.87895703    -0.12200
C931        C  0.95939050  0.34052239  0.85493013     0.01200
C932        C  0.95220070  0.37116528  0.84468315    -0.24300
H933        H  0.83015256  0.39161652  0.95470171     0.09200
H934        H  0.86720553  0.35779046  0.93002711     0.12700
H935        H  0.86029029  0.46962165  0.89738573     0.11400
H936        H  0.89963441  0.46248776  0.85728088     0.12600
H937        H  0.93789482  0.43017020  0.83087679     0.11700
H938        H  0.90394757  0.33205020  0.91129845     0.08800
H939        H  0.94574535  0.30464968  0.88939741     0.12000
H940        H  0.96676376  0.38230875  0.82687930     0.13900
C941        C  0.84940941  0.59105203  0.92966229    -0.01600
C942        C  0.87421333  0.60189068  0.94850658    -0.09600
C943        C  0.89881036  0.61961192  0.93563997    -0.18500
C944        C  0.89983342  0.62660726  0.90304124     0.03900
C945        C  0.87470976  0.61533522  0.88391418     0.18100
C946        C  0.84957219  0.59820586  0.89739760    -0.19900
C947        C  0.87503444  0.62094180  0.85140012    -0.21200
C948        C  0.89954534  0.63781172  0.83749034    -0.19700
C949        C  0.92428280  0.64989308  0.85573243     0.19500
C950        C  0.92485352  0.64426682  0.88873874     0.01600
C951        C  0.95056286  0.65638401  0.90595119    -0.14400
C952        C  0.97411906  0.67395870  0.89125060    -0.12200
C953        C  0.97321417  0.68108123  0.85875199     0.01200
C954        C  0.94838564  0.66761538  0.84107685    -0.24300
H955        H  0.87444364  0.59682492  0.97353939     0.09200
H956        H  0.91676270  0.62724352  0.95186051     0.12700
H957        H  0.83054825  0.58965731  0.88264250     0.11400
H958        H  0.85617911  0.61217834  0.83657712     0.12600
H959        H  0.89896566  0.64171475  0.81226240     0.11700
H960        H  0.95322899  0.65280712  0.93092745     0.08800
H961        H  0.99328789  0.68268266  0.90567063     0.12000
H962        H  0.94755533  0.67039119  0.81580155     0.13900
C963        C  0.84597003  0.58799324  0.07182076    -0.01600
C964        C  0.84378423  0.62071382  0.07029533    -0.09600
C965        C  0.86454075  0.63993986  0.08688957    -0.18500
C966        C  0.88804201  0.62691804  0.10619214     0.03900
C967        C  0.88959754  0.59355391  0.10847295     0.18100
C968        C  0.86887670  0.57437532  0.09091744    -0.19900
C969        C  0.91188333  0.57967323  0.12813761    -0.21200
C970        C  0.93344891  0.59820065  0.14462958    -0.19700
C971        C  0.93364450  0.63099169  0.14130286     0.19500
C972        C  0.91061505  0.64581698  0.12247754     0.01600
C973        C  0.91188091  0.67892677  0.11987384    -0.14400
C974        C  0.93732478  0.69600259  0.13153136    -0.12200
C975        C  0.96244542  0.68076984  0.14631089     0.01200
C976        C  0.95805869  0.64890998  0.15479351    -0.24300
H977        H  0.82593577  0.63153524  0.05586059     0.09200
H978        H  0.86143620  0.66487699  0.08406540     0.12700
H979        H  0.87009032  0.54895568  0.09260601     0.11400
H980        H  0.91295088  0.55430575  0.13039977     0.12600
H981        H  0.95090118  0.58672919  0.15903823     0.11700
H982        H  0.89434060  0.69232461  0.10778006     0.08800
H983        H  0.93746390  0.72120527  0.12796553     0.12000
H984        H  0.97606407  0.63723729  0.16833918     0.13900
C985        C  0.04047529  0.02912648  0.85673112    -0.01600
C986        C  0.02381633  0.02197597  0.82916274    -0.09600
C987        C  0.03939784  0.01996836  0.80015092    -0.18500
C988        C  0.07216406  0.02533576  0.79813762     0.03900
C989        C  0.08817780  0.03462109  0.82607386     0.18100
C990        C  0.07233625  0.03642639  0.85468942    -0.19900
C991        C  0.12029880  0.04090555  0.82578556    -0.21200
C992        C  0.13737295  0.03702989  0.79853382    -0.19700
C993        C  0.12279375  0.02659354  0.77091582     0.19500
C994        C  0.08995606  0.02107864  0.76996506     0.01600
C995        C  0.07674370  0.01120177  0.74103951    -0.14400
C996        C  0.09561744  0.00589302  0.71474493    -0.12200
C997        C  0.12846728  0.00952176  0.71623862     0.01200
C998        C  0.14129896  0.02145003  0.74439061    -0.24300
H999        H  0.99909623  0.01651508  0.83031086     0.09200
H1000       H  0.02546859  0.01337862  0.77993940     0.12700
H1001       H  0.08522440  0.04231544  0.87598753     0.11400
H1002       H  0.13246840  0.04825047  0.84701741     0.12600
H1003       H  0.16236404  0.04155318  0.79928672     0.11700
H1004       H  0.05195334  0.00724192  0.73810592     0.08800
H1005       H  0.08445973  0.99844590  0.69303279     0.12000
H1006       H  0.16589273  0.02741854  0.74601023     0.13900
C1007       C  0.06746751  0.04949324  0.11503224    -0.01600
C1008       C  0.09976513  0.04630026  0.11794957    -0.09600
C1009       C  0.11344550  0.04163841  0.14752156    -0.18500
C1010       C  0.09489156  0.03935902  0.17502308     0.03900
C1011       C  0.06236979  0.04502522  0.17204198     0.18100
C1012       C  0.04901624  0.04995935  0.14219333    -0.19900
C1013       C  0.04316910  0.04416226  0.19866292    -0.21200
C1014       C  0.05562788  0.03778467  0.22829693    -0.19700
C1015       C  0.08741197  0.03117353  0.23191749     0.19500
C1016       C  0.10729012  0.03116489  0.20523052     0.01600
C1017       C  0.13839281  0.02164207  0.20973972    -0.14400
C1018       C  0.14988542  0.01473103  0.23973245    -0.12200
C1019       C  0.13144908  0.01848936  0.26696163     0.01200
C1020       C  0.09945689  0.02472926  0.26214163    -0.24300
H1021       H  0.11419416  0.04519099  0.09708300     0.09200
H1022       H  0.13845109  0.03898895  0.14801587     0.12700
H1023       H  0.02383525  0.05167989  0.13980103     0.11400
H1024       H  0.01832633  0.04838549  0.19654304     0.12600
H1025       H  0.04019698  0.03758619  0.24847063     0.11700
H1026       H  0.15431364  0.01869577  0.19040585     0.08800
H1027       H  0.17365415  0.00661585  0.24114077     0.12000
H1028       H  0.08404399  0.02605020  0.28220154     0.13900
C1029       C  0.23667468  0.50592716  0.14971487    -0.01600
C1030       C  0.23142477  0.53464981  0.16484246    -0.09600
C1031       C  0.22204819  0.53562573  0.19616366    -0.18500
C1032       C  0.21765755  0.50775242  0.21383919     0.03900
C1033       C  0.22566158  0.47878931  0.19959435     0.18100
C1034       C  0.23463654  0.47801384  0.16763662    -0.19900
C1035       C  0.22427451  0.45090806  0.21733358    -0.21200
C1036       C  0.21529330  0.45136895  0.24889167    -0.19700
C1037       C  0.20604177  0.47946384  0.26305357     0.19500
C1038       C  0.20604881  0.50777671  0.24530891     0.01600
C1039       C  0.19400019  0.53490601  0.25961025    -0.14400
C1040       C  0.18419975  0.53453034  0.29085309    -0.12200
C1041       C  0.18609940  0.50712417  0.30947820     0.01200
C1042       C  0.19712370  0.47958703  0.29493360    -0.24300
H1043       H  0.23355778  0.55672804  0.15216303     0.09200
H1044       H  0.21856761  0.55865633  0.20595595     0.12700
H1045       H  0.23937199  0.45563159  0.15662373     0.11400
H1046       H  0.23057004  0.42868486  0.20686784     0.12600
H1047       H  0.21507690  0.42952501  0.26215068     0.11700
H1048       H  0.19171619  0.55690464  0.24716619     0.08800
H1049       H  0.17667798  0.55660496  0.30055009     0.12000
H1050       H  0.19937173  0.45826460  0.30880276     0.13900
C1051       C  0.21553462  0.50314844  0.35888985    -0.01600
C1052       C  0.22424900  0.47526821  0.37469358    -0.09600
C1053       C  0.25357752  0.47241705  0.38865679    -0.18500
C1054       C  0.27570477  0.49720175  0.38705008     0.03900
C1055       C  0.26861976  0.52341417  0.36751506     0.18100
C1056       C  0.23926850  0.52558740  0.35291167    -0.19900
C1057       C  0.29041453  0.54791210  0.36361691    -0.21200
C1058       C  0.31860781  0.54758145  0.37985313    -0.19700
C1059       C  0.32550822  0.52285695  0.40051522     0.19500
C1060       C  0.30438907  0.49711693  0.40431689     0.01600
C1061       C  0.31244602  0.47312371  0.42610179    -0.14400
C1062       C  0.34055736  0.47458991  0.44310724    -0.12200
C1063       C  0.36140176  0.49987121  0.43882837     0.01200
C1064       C  0.35343147  0.52398622  0.41762616    -0.24300
H1065       H  0.20851536  0.45523147  0.37660423     0.09200
H1066       H  0.25814332  0.45061736  0.40076173     0.12700
H1067       H  0.23405353  0.54597765  0.33849806     0.11400
H1068       H  0.28533399  0.56780177  0.34848197     0.12600
H1069       H  0.33485149  0.56715698  0.37674573     0.11700
H1070       H  0.29739350  0.45310022  0.43073197     0.08800
H1071       H  0.34623582  0.45563147  0.45915685     0.12000
H1072       H  0.36913184  0.54398888  0.41429129     0.13900
C1073       C  0.80101893  0.50355319  0.30554913    -0.01600
C1074       C  0.78601151  0.47746869  0.29140845    -0.09600
C1075       C  0.77834599  0.47731821  0.25952023    -0.18500
C1076       C  0.78494303  0.50365762  0.24020908     0.03900
C1077       C  0.80173840  0.52932679  0.25372753     0.18100
C1078       C  0.80936567  0.52920665  0.28592509    -0.19900
C1079       C  0.81007628  0.55546250  0.23522403    -0.21200
C1080       C  0.80143234  0.55695148  0.20368412    -0.19700
C1081       C  0.78367360  0.53264763  0.19006728     0.19500
C1082       C  0.77509591  0.50564403  0.20813300     0.01600
C1083       C  0.75644295  0.48213050  0.19349448    -0.14400
C1084       C  0.74758345  0.48487598  0.16203133    -0.12200
C1085       C  0.75672564  0.51115329  0.14417179     0.01200
C1086       C  0.77445071  0.53516711  0.15842347    -0.24300
H1087       H  0.77924789  0.45724493  0.30555507     0.09200
H1088       H  0.76683430  0.45634822  0.25086760     0.12700
H1089       H  0.82057442  0.55001291  0.29554073     0.11400
H1090       H  0.82319583  0.57501493  0.24527486     0.12600
H1091       H  0.80821723  0.57750870  0.18999819     0.11700
H1092       H  0.74819638  0.46136441  0.20567839     0.08800
H1093       H  0.73366123  0.46614138  0.15152292     0.12000
H1094       H  0.78185728  0.55545641  0.14462300     0.13900
C1095       C  0.76926255  0.50058739  0.35385644    -0.01600
C1096       C  0.75909434  0.47337519  0.37041236    -0.09600
C1097       C  0.72806086  0.46875927  0.37925306    -0.18500
C1098       C  0.70504569  0.49083676  0.37159172     0.03900
C1099       C  0.71427727  0.51728166  0.35306484     0.18100
C1100       C  0.74585102  0.52173576  0.34421907    -0.19900
C1101       C  0.69194253  0.53928806  0.34383033    -0.21200
C1102       C  0.66116483  0.53661123  0.35429742    -0.19700
C1103       C  0.65190629  0.51180477  0.37420030     0.19500
C1104       C  0.67340655  0.48791762  0.38225096     0.01600
C1105       C  0.66261537  0.46292674  0.40182236    -0.14400
C1106       C  0.63258836  0.46296921  0.41474010    -0.12200
C1107       C  0.61242149  0.48781191  0.40867900     0.01200
C1108       C  0.62179997  0.51159244  0.38748757    -0.24300
H1109       H  0.77466776  0.45445987  0.37615559     0.09200
H1110       H  0.72286062  0.44737061  0.39199281     0.12700
H1111       H  0.75237412  0.54185674  0.32977089     0.11400
H1112       H  0.69851339  0.55920799  0.32914856     0.12600
H1113       H  0.64472439  0.55461590  0.34756908     0.11700
H1114       H  0.67718425  0.44361373  0.40867576     0.08800
H1115       H  0.62590281  0.44457862  0.43124025     0.12000
H1116       H  0.60615732  0.53089206  0.38267671     0.13900
C1117       C  0.85036982  0.99696630  0.72244839    -0.01600
C1118       C  0.83125981  0.98744179  0.74798696    -0.09600
C1119       C  0.84374887  0.97953999  0.77721118    -0.18500
C1120       C  0.87620854  0.98012773  0.78252972     0.03900
C1121       C  0.89589899  0.98807287  0.75670912     0.18100
C1122       C  0.88298770  0.99543540  0.72703319    -0.19900
C1123       C  0.92835541  0.98932099  0.76087965    -0.21200
C1124       C  0.94150285  0.98438684  0.79048819    -0.19700
C1125       C  0.92255875  0.97743132  0.81652418     0.19500
C1126       C  0.88972235  0.97399547  0.81275932     0.01600
C1127       C  0.87182646  0.96569657  0.83972218    -0.14400
C1128       C  0.88562803  0.96395151  0.86962073    -0.12200
C1129       C  0.91755257  0.96992407  0.87335046     0.01200
C1130       C  0.93605569  0.97535343  0.84662261    -0.24300
H1131       H  0.80618084  0.98524094  0.74584694     0.09200
H1132       H  0.82717371  0.97328350  0.79528011     0.12700
H1133       H  0.89841893  0.00082807  0.70749821     0.11400
H1134       H  0.94362630  0.99510053  0.74132530     0.12600
H1135       H  0.96663256  0.98650541  0.79310471     0.11700
H1136       H  0.84695631  0.96154207  0.83871544     0.08800
H1137       H  0.87100120  0.96000393  0.89006193     0.12000
H1138       H  0.96087228  0.97993772  0.84965748     0.13900
C1139       C  0.94181110  0.98953932  0.13339561    -0.01600
C1140       C  0.95919193  0.99221736  0.16128489    -0.09600
C1141       C  0.94400218  0.99316572  0.19056148    -0.18500
C1142       C  0.91088569  0.99143145  0.19259203     0.03900
C1143       C  0.89382598  0.98662093  0.16420719     0.18100
C1144       C  0.90929605  0.98565066  0.13527365    -0.19900
C1145       C  0.86122053  0.98391623  0.16455481    -0.21200
C1146       C  0.84487079  0.98705784  0.19244077    -0.19700
C1147       C  0.86067439  0.99333492  0.22065399     0.19500
C1148       C  0.89389046  0.99512967  0.22135352     0.01600
C1149       C  0.90840577  0.00106685  0.25067465    -0.14400
C1150       C  0.89063733  0.00603524  0.27773796    -0.12200
C1151       C  0.85762259  0.00610410  0.27683701     0.01200
C1152       C  0.84313968  0.99823113  0.24802386    -0.24300
H1153       H  0.98436101  0.99519688  0.16036449     0.09200
H1154       H  0.95866811  0.99614375  0.21106529     0.12700
H1155       H  0.89573910  0.98302258  0.11376052     0.11400
H1156       H  0.84818641  0.97994305  0.14295556     0.12600
H1157       H  0.81957408  0.98534320  0.19177275     0.11700
H1158       H  0.93345090  0.00224626  0.25339477     0.08800
H1159       H  0.90284778  0.01044252  0.29971342     0.12000
H1160       H  0.81805750  0.99543307  0.24641954     0.13900
C1161       C  0.23196049  0.51199382  0.85218184    -0.01600
C1162       C  0.23818289  0.53928080  0.83438790    -0.09600
C1163       C  0.23123462  0.54059694  0.80208336    -0.18500
C1164       C  0.21732009  0.51462529  0.78630192     0.03900
C1165       C  0.21084393  0.48708113  0.80445232     0.18100
C1166       C  0.21839410  0.48591735  0.83679774    -0.19900
C1167       C  0.19658892  0.46084833  0.79029149    -0.21200
C1168       C  0.18871234  0.46125192  0.75849073    -0.19700
C1169       C  0.19494654  0.48785744  0.73983202     0.19500
C1170       C  0.20943828  0.51490453  0.75333032     0.01600
C1171       C  0.21583955  0.54067649  0.73305333    -0.14400
C1172       C  0.20820621  0.53953347  0.70090649    -0.12200
C1173       C  0.19308647  0.51310654  0.68739902     0.01200
C1174       C  0.18717480  0.48711901  0.70757441    -0.24300
H1175       H  0.24851017  0.55985369  0.84551126     0.09200
H1176       H  0.23668754  0.56241380  0.79015842     0.12700
H1177       H  0.21292997  0.46479379  0.85021360     0.11400
H1178       H  0.19141531  0.43981941  0.80394637     0.12600
H1179       H  0.17771710  0.44046864  0.74837557     0.11700
H1180       H  0.22732792  0.56187034  0.74122512     0.08800
H1181       H  0.21461388  0.55947808  0.68621734     0.12000
H1182       H  0.17758145  0.46537081  0.69833806     0.13900
C1183       C  0.22162451  0.51440347  0.63673005    -0.01600
C1184       C  0.24431064  0.49193442  0.64430119    -0.09600
C1185       C  0.27540640  0.49550397  0.63454819    -0.18500
C1186       C  0.28552284  0.52227135  0.61719296     0.03900
C1187       C  0.26288635  0.54499487  0.60933899     0.18100
C1188       C  0.23183931  0.54127411  0.61950124    -0.19900
C1189       C  0.27131978  0.57153154  0.59137505    -0.21200
C1190       C  0.30165644  0.57551374  0.58017653    -0.19700
C1191       C  0.32466016  0.55357663  0.58745467     0.19500
C1192       C  0.31711410  0.52717082  0.60696593     0.01600
C1193       C  0.34149355  0.50665957  0.61511044    -0.14400
C1194       C  0.37120248  0.51052155  0.60215766    -0.12200
C1195       C  0.37791006  0.53496564  0.58084775     0.01200
C1196       C  0.35487973  0.55721039  0.57447279    -0.24300
H1197       H  0.23787665  0.47143902  0.65820696     0.09200
H1198       H  0.29097139  0.47681060  0.64091666     0.12700
H1199       H  0.21611205  0.56029564  0.61443790     0.11400
H1200       H  0.25412667  0.58905535  0.58535234     0.12600
H1201       H  0.30712243  0.59584337  0.56561414     0.11700
H1202       H  0.33816506  0.48696669  0.63086214     0.08800
H1203       H  0.38876665  0.49316802  0.60754385     0.12000
H1204       H  0.35979856  0.57605467  0.55784726     0.13900
C1205       C  0.80240617  0.50862740  0.68957607    -0.01600
C1206       C  0.79095453  0.53667511  0.70225143    -0.09600
C1207       C  0.78229106  0.53872802  0.73386224    -0.18500
C1208       C  0.78387655  0.51234563  0.75416086     0.03900
C1209       C  0.79483245  0.48377332  0.74142601     0.18100
C1210       C  0.80360684  0.48210093  0.70973449    -0.19900
C1211       C  0.79640014  0.45666090  0.76018893    -0.21200
C1212       C  0.78707067  0.45724864  0.79142279    -0.19700
C1213       C  0.77603915  0.48498404  0.80469388     0.19500
C1214       C  0.77442311  0.51302056  0.78639839     0.01600
C1215       C  0.76342295  0.54043120  0.80122665    -0.14400
C1216       C  0.75474439  0.54003874  0.83288367    -0.12200
C1217       C  0.75652445  0.51236733  0.85080252     0.01200
C1218       C  0.76692378  0.48484839  0.83635243    -0.24300
H1219       H  0.78836251  0.55720905  0.68734196     0.09200
H1220       H  0.77387388  0.56118375  0.74149445     0.12700
H1221       H  0.81015423  0.45934820  0.70086064     0.11400
H1222       H  0.80476281  0.43475892  0.75058933     0.12600
H1223       H  0.78849838  0.43584471  0.80529594     0.11700
H1224       H  0.76159914  0.56265807  0.78914652     0.08800
H1225       H  0.74688554  0.56167193  0.84343068     0.12000
H1226       H  0.76877648  0.46331589  0.84997861     0.13900
C1227       C  0.77683770  0.51204070  0.63719088    -0.01600
C1228       C  0.77087928  0.53914450  0.61866606    -0.09600
C1229       C  0.74266713  0.54293372  0.60261499    -0.18500
C1230       C  0.71838590  0.52045259  0.60535933     0.03900
C1231       C  0.72286834  0.49502201  0.62676384     0.18100
C1232       C  0.75154900  0.49127012  0.64249195    -0.19900
C1233       C  0.69876199  0.47320437  0.63218659    -0.21200
C1234       C  0.67051744  0.47570191  0.61635260    -0.19700
C1235       C  0.66591511  0.49967959  0.59419771     0.19500
C1236       C  0.68965763  0.52243805  0.58810449     0.01600
C1237       C  0.68369584  0.54552456  0.56458318    -0.14400
C1238       C  0.65505139  0.54598985  0.54817605    -0.12200
C1239       C  0.63158204  0.52365169  0.55491259     0.01200
C1240       C  0.63756477  0.50060142  0.57792909    -0.24300
H1241       H  0.78781529  0.55810258  0.61637276     0.09200
H1242       H  0.74032873  0.56398867  0.58859913     0.12700
H1243       H  0.75462887  0.47145947  0.65831598     0.11400
H1244       H  0.70180279  0.45397575  0.64870235     0.12600
H1245       H  0.65228202  0.45836370  0.62108568     0.11700
H1246       H  0.70087194  0.56318824  0.55810824     0.08800
H1247       H  0.65118952  0.56396717  0.53049607     0.12000
H1248       H  0.62003842  0.48268553  0.58322744     0.13900
C1249       C  0.98989522  0.27439775  0.35315028    -0.01600
C1250       C  0.96459382  0.29078775  0.34024449    -0.09600
C1251       C  0.96400499  0.29935712  0.30837790    -0.18500
C1252       C  0.98861800  0.29129067  0.28797498     0.03900
C1253       C  0.01335435  0.27312019  0.30072905     0.18100
C1254       C  0.01412836  0.26548293  0.33306580    -0.19900
C1255       C  0.03714862  0.26256734  0.28108062    -0.21200
C1256       C  0.03695279  0.26966573  0.24907083    -0.19700
C1257       C  0.01354180  0.28840206  0.23601498     0.19500
C1258       C  0.98938793  0.30006913  0.25531461     0.01600
C1259       C  0.96753217  0.32046669  0.24115135    -0.14400
C1260       C  0.96858291  0.32748336  0.20884283    -0.12200
C1261       C  0.99090296  0.31371579  0.18908512     0.01200
C1262       C  0.01410095  0.29526039  0.20361807    -0.24300
H1263       H  0.94534488  0.29767197  0.35503779     0.09200
H1264       H  0.94379773  0.31194148  0.30025642     0.12700
H1265       H  0.03350767  0.25224995  0.34255308     0.11400
H1266       H  0.05588950  0.24840366  0.29047328     0.12600
H1267       H  0.05548731  0.26069732  0.23445793     0.11700
H1268       H  0.94957753  0.33171865  0.25461279     0.08800
H1269       H  0.95151780  0.34360184  0.19971159     0.12000
H1270       H  0.03215577  0.28513905  0.18914001     0.13900
C1271       C  0.99580442  0.27268359  0.64788041    -0.01600
C1272       C  0.02343509  0.27133059  0.66564255    -0.09600
C1273       C  0.02413163  0.28099546  0.69705932    -0.18500
C1274       C  0.99708351  0.29265750  0.71181969     0.03900
C1275       C  0.96922668  0.29432641  0.69360895     0.18100
C1276       C  0.96874650  0.28409850  0.66222528    -0.19900
C1277       C  0.94202021  0.30652377  0.70668225    -0.21200
C1278       C  0.94176541  0.31691255  0.73764674    -0.19700
C1279       C  0.96858525  0.31495929  0.75648451     0.19500
C1280       C  0.99660163  0.30272270  0.74390440     0.01600
C1281       C  0.02260156  0.30026908  0.76424448    -0.14400
C1282       C  0.02064881  0.30901681  0.79574843    -0.12200
C1283       C  0.99309443  0.32144792  0.80842376     0.01200
C1284       C  0.96710320  0.32426014  0.78815623    -0.24300
H1285       H  0.04478863  0.26299586  0.65516001     0.09200
H1286       H  0.04633577  0.27948637  0.70896688     0.12700
H1287       H  0.94729976  0.28587893  0.64869044     0.11400
H1288       H  0.92075916  0.30807862  0.69283624     0.12600
H1289       H  0.92027516  0.32615597  0.74705623     0.11700
H1290       H  0.04454098  0.29071619  0.75684865     0.08800
H1291       H  0.04080872  0.30529567  0.81074014     0.12000
H1292       H  0.94491101  0.33203431  0.79707754     0.13900
C1293       C  0.91813803  0.36298919  0.43144263    -0.01600
C1294       C  0.91207045  0.36003049  0.39917660    -0.09600
C1295       C  0.89445554  0.38241838  0.38316181    -0.18500
C1296       C  0.88165291  0.40823890  0.39925118     0.03900
C1297       C  0.88719891  0.41057477  0.43224576     0.18100
C1298       C  0.90597399  0.38851927  0.44779985    -0.19900
C1299       C  0.87341423  0.43450324  0.44964457    -0.21200
C1300       C  0.85394659  0.45601547  0.43504327    -0.19700
C1301       C  0.84871988  0.45481456  0.40251975     0.19500
C1302       C  0.86301750  0.43143179  0.38399297     0.01600
C1303       C  0.85853889  0.43272153  0.35100741    -0.14400
C1304       C  0.84003746  0.45584077  0.33710838    -0.12200
C1305       C  0.82431214  0.47797503  0.35561712     0.01200
C1306       C  0.82947810  0.47721803  0.38844110    -0.24300
H1307       H  0.92113823  0.34029412  0.38622250     0.09200
H1308       H  0.89054644  0.37840380  0.35840677     0.12700
H1309       H  0.91014328  0.39051465  0.47293185     0.11400
H1310       H  0.87729074  0.43627629  0.47481661     0.12600
H1311       H  0.84321369  0.47398949  0.44924637     0.11700
H1312       H  0.86984340  0.41675044  0.33520186     0.08800
H1313       H  0.83880407  0.45633068  0.31172666     0.12000
H1314       H  0.81835673  0.49458319  0.40312124     0.13900
C1315       C  0.91680502  0.35708100  0.57657974    -0.01600
C1316       C  0.93073963  0.37818708  0.59765122    -0.09600
C1317       C  0.91252892  0.39955710  0.61404463    -0.18500
C1318       C  0.87983722  0.40095385  0.60894403     0.03900
C1319       C  0.86608168  0.37989382  0.58680132     0.18100
C1320       C  0.88447554  0.35758243  0.57161704    -0.19900
C1321       C  0.83433709  0.38203872  0.57910224    -0.21200
C1322       C  0.81636936  0.40596439  0.59154292    -0.19700
C1323       C  0.82933206  0.42725523  0.61321524     0.19500
C1324       C  0.86068169  0.42373856  0.62360479     0.01600
C1325       C  0.87177964  0.44369542  0.64766230    -0.14400
C1326       C  0.85374338  0.46830382  0.65842971    -0.12200
C1327       C  0.82391026  0.47434711  0.64569740     0.01200
C1328       C  0.81155437  0.45274419  0.62362824    -0.24300
H1329       H  0.95576554  0.37792725  0.60163839     0.09200
H1330       H  0.92484861  0.41548414  0.62958816     0.12700
H1331       H  0.87386154  0.34131140  0.55494867     0.11400
H1332       H  0.82369720  0.36599725  0.56227197     0.12600
H1333       H  0.79226767  0.40799430  0.58395556     0.11700
H1334       H  0.89446917  0.44106677  0.65840134     0.08800
H1335       H  0.86381872  0.48395419  0.67594306     0.12000
H1336       H  0.78897473  0.45630608  0.61291103     0.13900
C1337       C  0.07244804  0.36091552  0.57367371    -0.01600
C1338       C  0.05893851  0.38294633  0.59361235    -0.09600
C1339       C  0.07745636  0.40582146  0.60871034    -0.18500
C1340       C  0.11013748  0.40786057  0.60351814     0.03900
C1341       C  0.12344466  0.38588554  0.58247851     0.18100
C1342       C  0.10473501  0.36225408  0.56849713    -0.19900
C1343       C  0.15521536  0.38806742  0.57493244    -0.21200
C1344       C  0.17397902  0.41210143  0.58721821    -0.19700
C1345       C  0.16178633  0.43390435  0.60834318     0.19500
C1346       C  0.12993470  0.43145767  0.61756880     0.01600
C1347       C  0.11927590  0.45289813  0.64023055    -0.14400
C1348       C  0.13888577  0.47670746  0.65188722    -0.12200
C1349       C  0.17001073  0.48063647  0.64147416     0.01200
C1350       C  0.18118469  0.45851807  0.61970995    -0.24300
H1351       H  0.03396643  0.38225421  0.59775719     0.09200
H1352       H  0.06542066  0.42208090  0.62363215     0.12700
H1353       H  0.11512881  0.34542876  0.55267023     0.11400
H1354       H  0.16547830  0.37150510  0.55878017     0.12600
H1355       H  0.19827887  0.41357737  0.58019843     0.11700
H1356       H  0.09581862  0.45194872  0.64936860     0.08800
H1357       H  0.12928883  0.49319734  0.66852139     0.12000
H1358       H  0.20447849  0.46088150  0.61024080     0.13900
C1359       C  0.06391541  0.36568790  0.43022080    -0.01600
C1360       C  0.07550890  0.39026192  0.44879200    -0.09600
C1361       C  0.09263953  0.41476248  0.43539978    -0.18500
C1362       C  0.09861093  0.41546913  0.40271081     0.03900
C1363       C  0.08473521  0.39168779  0.38356886     0.18100
C1364       C  0.06806339  0.36657940  0.39754344    -0.19900
C1365       C  0.08786614  0.39312265  0.35078101    -0.21200
C1366       C  0.10548992  0.41713160  0.33673093    -0.19700
C1367       C  0.12141163  0.43945240  0.35523625     0.19500
C1368       C  0.11817676  0.43875850  0.38851275     0.01600
C1369       C  0.13556890  0.46066498  0.40642780    -0.14400
C1370       C  0.15560386  0.48205137  0.39204035    -0.12200
C1371       C  0.15947640  0.48283433  0.35913480     0.01200
C1372       C  0.14115783  0.46197644  0.34078966    -0.24300
H1373       H  0.07186092  0.39016542  0.47404149     0.09200
H1374       H  0.10063501  0.43284533  0.45132182     0.12700
H1375       H  0.05811294  0.34794343  0.38309893     0.11400
H1376       H  0.07676550  0.37549337  0.33594395     0.12600
H1377       H  0.10761382  0.41755118  0.31131276     0.11700
H1378       H  0.13513121  0.46134599  0.43175806     0.08800
H1379       H  0.16880971  0.49812665  0.40692340     0.12000
H1380       H  0.14203646  0.46292891  0.31538204     0.13900
C1381       C  0.06704087  0.15182336  0.57308084    -0.01600
C1382       C  0.06073589  0.12034294  0.56542760    -0.09600
C1383       C  0.07492432  0.09600936  0.58176883    -0.18500
C1384       C  0.09600894  0.10221115  0.60675997     0.03900
C1385       C  0.10291481  0.13412263  0.61422280     0.18100
C1386       C  0.08859409  0.15855901  0.59729973    -0.19900
C1387       C  0.12359695  0.14136942  0.63890209    -0.21200
C1388       C  0.13689651  0.11753981  0.65688525    -0.19700
C1389       C  0.13012522  0.08588309  0.65039683     0.19500
C1390       C  0.10999973  0.07785309  0.62491394     0.01600
C1391       C  0.10390106  0.04574654  0.61924801    -0.14400
C1392       C  0.11692631  0.02262162  0.63805762    -0.12200
C1393       C  0.13748704  0.03002882  0.66315263     0.01200
C1394       C  0.14287978  0.06219349  0.66959308    -0.24300
H1395       H  0.04441951  0.11425313  0.54678044     0.09200
H1396       H  0.06849712  0.07262038  0.57431345     0.12700
H1397       H  0.09384417  0.18280680  0.60343841     0.11400
H1398       H  0.12913796  0.16564151  0.64466291     0.12600
H1399       H  0.15241934  0.12392266  0.67612944     0.11700
H1400       H  0.08847799  0.03747005  0.60089025     0.08800
H1401       H  0.10910718  0.99882054  0.63338635     0.12000
H1402       H  0.15688016  0.06877285  0.68992314     0.13900
C1403       C  0.84719509  0.03751632  0.67585063    -0.01600
C1404       C  0.86902573  0.05788597  0.69044969    -0.09600
C1405       C  0.88289052  0.08288549  0.67365664    -0.18500
C1406       C  0.87511977  0.08863595  0.64170726     0.03900
C1407       C  0.85040733  0.07042126  0.62835701     0.18100
C1408       C  0.83608287  0.04614577  0.64574562    -0.19900
C1409       C  0.84126282  0.07518873  0.59704403    -0.21200
C1410       C  0.85714324  0.09672614  0.57807610    -0.19700
C1411       C  0.88243452  0.11421250  0.58999949     0.19500
C1412       C  0.89136929  0.11105527  0.62222171     0.01600
C1413       C  0.91663932  0.12992923  0.63316865    -0.14400
C1414       C  0.93245844  0.15065046  0.61288778    -0.12200
C1415       C  0.92410857  0.15278451  0.58105978     0.01200
C1416       C  0.89894540  0.13475985  0.56977181    -0.24300
H1417       H  0.87635086  0.05427765  0.71452570     0.09200
H1418       H  0.90029660  0.09669616  0.68602936     0.12700
H1419       H  0.81830821  0.03153920  0.63450990     0.11400
H1420       H  0.82227804  0.06142969  0.58683023     0.12600
H1421       H  0.84993367  0.09930819  0.55371771     0.11700
H1422       H  0.92466805  0.12925998  0.65724210     0.08800
H1423       H  0.95140984  0.16514816  0.62210144     0.12000
H1424       H  0.89186254  0.13721739  0.54534005     0.13900
C1425       C  0.92296044  0.15570996  0.41969156    -0.01600
C1426       C  0.90030168  0.13565601  0.43264458    -0.09600
C1427       C  0.88273329  0.11554095  0.41339055    -0.18500
C1428       C  0.88792311  0.11451055  0.38053413     0.03900
C1429       C  0.91216296  0.13386889  0.36777903     0.18100
C1430       C  0.92885866  0.15486949  0.38728388    -0.19900
C1431       C  0.91982379  0.13169985  0.33582652    -0.21200
C1432       C  0.90479681  0.10965894  0.31661557    -0.19700
C1433       C  0.88096999  0.09015003  0.32865489     0.19500
C1434       C  0.87100529  0.09370004  0.36023039     0.01600
C1435       C  0.84468233  0.07597923  0.37017836    -0.14400
C1436       C  0.83233539  0.05192460  0.35142116    -0.12200
C1437       C  0.84643743  0.04409499  0.32262447     0.01200
C1438       C  0.86808976  0.06603163  0.30987694    -0.24300
H1439       H  0.89564373  0.13613434  0.45769771     0.09200
H1440       H  0.86579749  0.10047830  0.42494808     0.12700
H1441       H  0.94675110  0.17029351  0.37740045     0.11400
H1442       H  0.93830611  0.14632899  0.32591673     0.12600
H1443       H  0.91223589  0.10747066  0.29236750     0.11700
H1444       H  0.83379813  0.07958472  0.39271380     0.08800
H1445       H  0.81379070  0.03717445  0.36097754     0.12000
H1446       H  0.87642543  0.06366950  0.28603754     0.13900
C1447       C  0.13786713  0.04487912  0.32173000    -0.01600
C1448       C  0.14247197  0.04294380  0.35461440    -0.09600
C1449       C  0.12828468  0.06413429  0.37502033    -0.18500
C1450       C  0.11124296  0.08980123  0.36317743     0.03900
C1451       C  0.11169939  0.09509080  0.33013745     0.18100
C1452       C  0.12466336  0.07272366  0.30981420    -0.19900
C1453       C  0.09866262  0.12243098  0.31754814    -0.21200
C1454       C  0.08489367  0.14443930  0.33708879    -0.19700
C1455       C  0.08231012  0.13886799  0.36950495     0.19500
C1456       C  0.09454450  0.11093521  0.38290356     0.01600
C1457       C  0.08868861  0.10496585  0.41518536    -0.14400
C1458       C  0.07247868  0.12657497  0.43361609    -0.12200
C1459       C  0.06235003  0.15509613  0.42071242     0.01200
C1460       C  0.06724296  0.16094002  0.38854954    -0.24300
H1461       H  0.15442435  0.02296219  0.36467624     0.09200
H1462       H  0.13108229  0.06002757  0.39995978     0.12700
H1463       H  0.12381966  0.07695587  0.28469226     0.11400
H1464       H  0.09929981  0.12693802  0.29242246     0.12600
H1465       H  0.07543574  0.16558289  0.32664076     0.11700
H1466       H  0.09576697  0.08342885  0.42651482     0.08800
H1467       H  0.06845254  0.12126286  0.45825119     0.12000
H1468       H  0.05865532  0.18250803  0.37813715     0.13900
C1469       C  0.99532576  0.70191783  0.18881488    -0.01600
C1470       C  0.01810747  0.68899548  0.20889437    -0.09600
C1471       C  0.01912404  0.69654101  0.24090620    -0.18500
C1472       C  0.99630436  0.71592489  0.25446126     0.03900
C1473       C  0.97124385  0.72577040  0.23508769     0.18100
C1474       C  0.97120369  0.71913448  0.20288688    -0.19900
C1475       C  0.94632923  0.74233049  0.24787568    -0.21200
C1476       C  0.94587568  0.74951279  0.27971206    -0.19700
C1477       C  0.97103717  0.74164408  0.29912838     0.19500
C1478       C  0.99697998  0.72533387  0.28664467     0.01600
C1479       C  0.02277629  0.71994257  0.30666680    -0.14400
C1480       C  0.02240306  0.72967968  0.33796202    -0.12200
C1481       C  0.99623130  0.74469734  0.35042523     0.01200
C1482       C  0.97057528  0.75044476  0.33088917    -0.24300
H1483       H  0.03528836  0.67281723  0.20043494     0.09200
H1484       H  0.03751454  0.68611715  0.25470012     0.12700
H1485       H  0.95249920  0.72816290  0.18830393     0.11400
H1486       H  0.92690984  0.74953304  0.23320043     0.12600
H1487       H  0.92608210  0.76201659  0.28903591     0.11700
H1488       H  0.04378188  0.70886612  0.29861626     0.08800
H1489       H  0.04254894  0.72482383  0.35263981     0.12000
H1490       H  0.95038791  0.76227525  0.34029163     0.13900
C1491       C  0.99768031  0.70495742  0.80788071    -0.01600
C1492       C  0.97268472  0.72259725  0.79579164    -0.09600
C1493       C  0.97088797  0.73088900  0.76394813    -0.18500
C1494       C  0.99437469  0.72215399  0.74254485     0.03900
C1495       C  0.01946746  0.70401278  0.75442792     0.18100
C1496       C  0.02099135  0.69580711  0.78651334    -0.19900
C1497       C  0.04338815  0.69457180  0.73432508    -0.21200
C1498       C  0.04307784  0.70289058  0.70266896    -0.19700
C1499       C  0.01895631  0.72107298  0.69027241     0.19500
C1500       C  0.99414660  0.73096404  0.70991085     0.01600
C1501       C  0.97033684  0.74921481  0.69592898    -0.14400
C1502       C  0.97096237  0.75676203  0.66379176    -0.12200
C1503       C  0.99548974  0.74685394  0.64461848     0.01200
C1504       C  0.01949806  0.72920720  0.65818543    -0.24300
H1505       H  0.95465433  0.73072948  0.81149533     0.09200
H1506       H  0.95103703  0.74458098  0.75692878     0.12700
H1507       H  0.04131118  0.68333147  0.79465990     0.11400
H1508       H  0.06258537  0.68068243  0.74317176     0.12600
H1509       H  0.06195965  0.69513773  0.68777912     0.11700
H1510       H  0.95079780  0.75779151  0.70912658     0.08800
H1511       H  0.95210880  0.77040297  0.65387854     0.12000
H1512       H  0.03833819  0.72096635  0.64348999     0.13900
C1513       C  0.07561675  0.65945011  0.42648816    -0.01600
C1514       C  0.10798161  0.66035759  0.43133374    -0.09600
C1515       C  0.12713568  0.63796186  0.41745823    -0.18500
C1516       C  0.11439146  0.61428368  0.39764295     0.03900
C1517       C  0.08160068  0.61445958  0.39184851     0.18100
C1518       C  0.06254830  0.63650654  0.40674593    -0.19900
C1519       C  0.06798209  0.59260389  0.37122675    -0.21200
C1520       C  0.08619265  0.57046149  0.35621371    -0.19700
C1521       C  0.11831403  0.56890861  0.36226709     0.19500
C1522       C  0.13282682  0.59037838  0.38345110     0.01600
C1523       C  0.16476854  0.58605525  0.39052349    -0.14400
C1524       C  0.18115616  0.56065822  0.37824086    -0.12200
C1525       C  0.16704179  0.53954446  0.35669038     0.01200
C1526       C  0.13565820  0.54503640  0.34818491    -0.24300
H1527       H  0.11843267  0.67818772  0.44639069     0.09200
H1528       H  0.15182477  0.64003561  0.42230505     0.12700
H1529       H  0.03751529  0.63619560  0.40257944     0.11400
H1530       H  0.04306133  0.59271764  0.36656022     0.12600
H1531       H  0.07489631  0.55386478  0.34037141     0.11700
H1532       H  0.17726542  0.60082635  0.40703074     0.08800
H1533       H  0.20444002  0.55727708  0.38722665     0.12000
H1534       H  0.12401813  0.52896525  0.33202682     0.13900
C1535       C  0.07241964  0.65392489  0.56439219    -0.01600
C1536       C  0.07838745  0.62608466  0.54811579    -0.09600
C1537       C  0.09656273  0.60265173  0.56166473    -0.18500
C1538       C  0.10902009  0.60610493  0.59236934     0.03900
C1539       C  0.10129518  0.63345725  0.60958297     0.18100
C1540       C  0.08392664  0.65747331  0.59520304    -0.19900
C1541       C  0.11058323  0.63635022  0.64112928    -0.21200
C1542       C  0.12709896  0.61241909  0.65598232    -0.19700
C1543       C  0.13643259  0.58590885  0.63912783     0.19500
C1544       C  0.12842819  0.58309946  0.60674697     0.01600
C1545       C  0.14098560  0.55795726  0.58976486    -0.14400
C1546       C  0.16019574  0.53624867  0.60439621    -0.12200
C1547       C  0.16713313  0.53766934  0.63692326     0.01200
C1548       C  0.15426795  0.56255363  0.65424074    -0.24300
H1549       H  0.06933491  0.62257164  0.52450211     0.09200
H1550       H  0.09981015  0.58174204  0.54783965     0.12700
H1551       H  0.07866200  0.67859066  0.60828253     0.11400
H1552       H  0.10448469  0.65696316  0.65458728     0.12600
H1553       H  0.13337967  0.61509615  0.68058130     0.11700
H1554       H  0.13744545  0.55514673  0.56477918     0.08800
H1555       H  0.16999281  0.51791848  0.58998312     0.12000
H1556       H  0.15821559  0.56441554  0.67927834     0.13900
C1557       C  0.92415802  0.65068336  0.56834402    -0.01600
C1558       C  0.91282208  0.62575819  0.55012356    -0.09600
C1559       C  0.89676555  0.60074140  0.56390957    -0.18500
C1560       C  0.89172392  0.59963074  0.59678122     0.03900
C1561       C  0.90440574  0.62439535  0.61550696     0.18100
C1562       C  0.92024238  0.64991824  0.60111290    -0.19900
C1563       C  0.90076556  0.62360780  0.64828833    -0.21200
C1564       C  0.88346693  0.59950815  0.66267846    -0.19700
C1565       C  0.86917563  0.57577527  0.64460281     0.19500
C1566       C  0.87383371  0.57522056  0.61147900     0.01600
C1567       C  0.85972642  0.55064506  0.59418916    -0.14400
C1568       C  0.84010735  0.52895967  0.60862539    -0.12200
C1569       C  0.83328517  0.53046906  0.64100431     0.01200
C1570       C  0.84955698  0.55309901  0.65920767    -0.24300
H1571       H  0.91589476  0.62592126  0.52479461     0.09200
H1572       H  0.88848360  0.58286652  0.54793901     0.12700
H1573       H  0.92967576  0.66900207  0.61530635     0.11400
H1574       H  0.91085612  0.64206382  0.66282870     0.12600
H1575       H  0.88051059  0.59994391  0.68800401     0.11700
H1576       H  0.86257521  0.54774761  0.56922446     0.08800
H1577       H  0.82890913  0.51128619  0.59392240     0.12000
H1578       H  0.84679728  0.55370998  0.68447417     0.13900
C1579       C  0.91523208  0.65539610  0.42486631    -0.01600
C1580       C  0.88267797  0.65836850  0.42535946    -0.09600
C1581       C  0.86315559  0.63599819  0.41090459    -0.18500
C1582       C  0.87568215  0.61010976  0.39470334     0.03900
C1583       C  0.90882825  0.60808340  0.39292708     0.18100
C1584       C  0.92820597  0.63018682  0.40857201    -0.19900
C1585       C  0.92239011  0.58407723  0.37542172    -0.21200
C1586       C  0.90377448  0.56203409  0.35968751    -0.19700
C1587       C  0.87113933  0.56260257  0.36215090     0.19500
C1588       C  0.85660413  0.58619044  0.38019495     0.01600
C1589       C  0.82379028  0.58399465  0.38397294    -0.14400
C1590       C  0.80637590  0.55870450  0.37151711    -0.12200
C1591       C  0.82060233  0.53545752  0.35315938     0.01200
C1592       C  0.85309703  0.53882729  0.34769469    -0.24300
H1593       H  0.87221286  0.67794317  0.43747910     0.09200
H1594       H  0.83836860  0.63988081  0.41232243     0.12700
H1595       H  0.95342038  0.62821870  0.40746992     0.11400
H1596       H  0.94758043  0.58247043  0.37368626     0.12600
H1597       H  0.91504398  0.54382001  0.34624569     0.11700
H1598       H  0.81112597  0.60055504  0.39800017     0.08800
H1599       H  0.78190978  0.55733387  0.37737027     0.12000
H1600       H  0.86478139  0.52132912  0.33365333     0.13900
C1601       C  0.06034013  0.86614172  0.41433797    -0.01600
C1602       C  0.08424927  0.85806934  0.39330815    -0.09600
C1603       C  0.09711474  0.88019490  0.37227046    -0.18500
C1604       C  0.08639259  0.91143626  0.37128365     0.03900
C1605       C  0.06205190  0.91951553  0.39249243     0.18100
C1606       C  0.04946907  0.89709935  0.41367131    -0.19900
C1607       C  0.05033001  0.95002684  0.39250982    -0.21200
C1608       C  0.06281553  0.97295081  0.37268490    -0.19700
C1609       C  0.08748911  0.96605599  0.35240744     0.19500
C1610       C  0.09924547  0.93519190  0.35064914    -0.14400
C1611       C  0.12302950  0.92981154  0.32813949    -0.14400
C1612       C  0.13650742  0.95483644  0.31061741    -0.12200
C1613       C  0.12822951  0.98626333  0.31630192     0.01200
C1614       C  0.10096763  0.99042507  0.33460506    -0.24300
H1615       H  0.09325789  0.83440067  0.39309156     0.09200
H1616       H  0.11558991  0.87228544  0.35717733     0.12700
H1617       H  0.03085605  0.90376861  0.42943829     0.11400
H1618       H  0.03162697  0.95635437  0.40829953     0.12600
H1619       H  0.05357070  0.99652724  0.37379365     0.11700
H1620       H  0.13167167  0.90654790  0.32369263     0.08800
H1621       H  0.15402911  0.94953360  0.29321024     0.12000
H1622       H  0.09039900  0.01332959  0.33618636     0.13900
C1623       C  0.92257023  0.86272534  0.41929190    -0.01600
C1624       C  0.90447079  0.85427252  0.39286959    -0.09600
C1625       C  0.88859786  0.87697673  0.37534559    -0.18500
C1626       C  0.89030398  0.90912436  0.38368777     0.03900
C1627       C  0.90817172  0.91740705  0.41083831     0.18100
C1628       C  0.92411083  0.89441675  0.42809062    -0.19900
C1629       C  0.91033346  0.94871153  0.42058867    -0.21200
C1630       C  0.89606081  0.97225237  0.40333746    -0.19700
C1631       C  0.87927171  0.96509771  0.37586330     0.19500
C1632       C  0.87555913  0.93346757  0.36587527     0.01600
C1633       C  0.85822438  0.92788339  0.33798489    -0.14400
C1634       C  0.84587357  0.95277737  0.32047677    -0.12200
C1635       C  0.84984054  0.98434802  0.32998813     0.01200
C1636       C  0.86720200  0.98980013  0.35787197    -0.24300
H1637       H  0.90263452  0.82994929  0.38549004     0.09200
H1638       H  0.87531188  0.86865235  0.35535568     0.12700
H1639       H  0.93774557  0.90134363  0.44856169     0.11400
H1640       H  0.92358550  0.95512361  0.44146502     0.12600
H1641       H  0.89864585  0.99636151  0.41128487     0.11700
H1642       H  0.85430792  0.90458429  0.32872705     0.08800
H1643       H  0.83352387  0.94740552  0.29879278     0.12000
H1644       H  0.87327732  0.01329756  0.36537274     0.13900
C1645       C  0.92106010  0.86026327  0.57435544    -0.01600
C1646       C  0.89746165  0.85098237  0.59553992    -0.09600
C1647       C  0.88187292  0.87317427  0.61374889    -0.18500
C1648       C  0.88952484  0.90556816  0.61149245     0.03900
C1649       C  0.91293110  0.91480855  0.58942084     0.18100
C1650       C  0.92823745  0.89235517  0.57123359    -0.19900
C1651       C  0.92136935  0.94646804  0.58581208    -0.21200
C1652       C  0.90728882  0.96926523  0.60383629    -0.19700
C1653       C  0.88445634  0.96098924  0.62601804     0.19500
C1654       C  0.87517452  0.92916454  0.63037987     0.01600
C1655       C  0.85288691  0.92251197  0.65416906    -0.14400
C1656       C  0.84026577  0.94662865  0.67251099    -0.12200
C1657       C  0.84828693  0.97849344  0.66723139     0.01200
C1658       C  0.87159698  0.98469059  0.64433684    -0.24300
H1659       H  0.89101844  0.82638157  0.59822725     0.09200
H1660       H  0.86402166  0.86430580  0.62942288     0.12700
H1661       H  0.94623162  0.90000713  0.55488436     0.11400
H1662       H  0.93914669  0.95366240  0.56903903     0.12600
H1663       H  0.91451068  0.99361241  0.60052850     0.11700
H1664       H  0.84533274  0.89881893  0.65965892     0.08800
H1665       H  0.82437267  0.94025893  0.69133932     0.12000
H1666       H  0.88153924  0.00797994  0.64125201     0.13900
C1667       C  0.14407760  0.97130945  0.67168545    -0.01600
C1668       C  0.15802796  0.96519313  0.64235951    -0.09600
C1669       C  0.14737047  0.94031827  0.62372069    -0.18500
C1670       C  0.12312073  0.92023638  0.63444740     0.03900
C1671       C  0.11440968  0.92223234  0.66660284     0.18100
C1672       C  0.12538111  0.94735146  0.68513261    -0.19900
C1673       C  0.09304103  0.90051286  0.67934677    -0.21200
C1674       C  0.07807351  0.87858893  0.66009332    -0.19700
C1675       C  0.08340484  0.87870409  0.62759221     0.19500
C1676       C  0.10627013  0.89929734  0.61425649     0.01600
C1677       C  0.10954974  0.89973412  0.58107566    -0.14400
C1678       C  0.09045273  0.88079156  0.56197049    -0.12200
C1679       C  0.06823792  0.86050828  0.57544147     0.01200
C1680       C  0.06524262  0.85906814  0.60819347    -0.24300
H1681       H  0.17474541  0.98179482  0.63239138     0.09200
H1682       H  0.15749910  0.93814341  0.60062635     0.12700
H1683       H  0.11756553  0.94908135  0.70924132     0.11400
H1684       H  0.08693730  0.90129821  0.70407069     0.12600
H1685       H  0.06095053  0.86262209  0.67041499     0.11700
H1686       H  0.12592565  0.91520467  0.56922981     0.08800
H1687       H  0.09348024  0.88147248  0.53665799     0.12000
H1688       H  0.04819558  0.84297089  0.61851866     0.13900
C1689       C  0.30313475  0.81377889  0.49914204    -0.01600
C1690       C  0.28425629  0.82922488  0.47693880    -0.09600
C1691       C  0.25191985  0.82382454  0.47611180    -0.18500
C1692       C  0.23714434  0.80347067  0.49811959     0.03900
C1693       C  0.25583775  0.79034660  0.52231115     0.18100
C1694       C  0.28812081  0.79559879  0.52261348    -0.19900
C1695       C  0.24236969  0.77157505  0.54589878    -0.21200
C1696       C  0.21052311  0.76505456  0.54572206    -0.19700
C1697       C  0.19157152  0.77648182  0.52150284     0.19500
C1698       C  0.20457729  0.79569332  0.49718190     0.01600
C1699       C  0.18457028  0.80550132  0.47260424    -0.14400
C1700       C  0.15304741  0.79661397  0.47230275    -0.12200
C1701       C  0.14035316  0.77804728  0.49658848     0.01200
C1702       C  0.15970582  0.76834489  0.52126298    -0.24300
H1703       H  0.29401504  0.84568137  0.46012215     0.09200
H1704       H  0.23904503  0.83620939  0.45819524     0.12700
H1705       H  0.30212551  0.78447699  0.54074258     0.11400
H1706       H  0.25659862  0.76176385  0.56457844     0.12600
H1707       H  0.20076132  0.75042078  0.56430331     0.11700
H1708       H  0.19268863  0.81956235  0.45302245     0.08800
H1709       H  0.13841843  0.80472427  0.45312326     0.12000
H1710       H  0.15005403  0.75388794  0.54005921     0.13900
C1711       C  0.42528877  0.63606560  0.46730834    -0.01600
C1712       C  0.39350071  0.63851294  0.46054003    -0.09600
C1713       C  0.37870498  0.66749521  0.46329900    -0.18500
C1714       C  0.39553521  0.69478801  0.47312119     0.03900
C1715       C  0.42833355  0.69239096  0.47723327     0.18100
C1716       C  0.44284015  0.66322482  0.47426789    -0.19900
C1717       C  0.44627828  0.71875132  0.48580458    -0.21200
C1718       C  0.43220016  0.74722640  0.49232435    -0.19700
C1719       C  0.39974629  0.75005420  0.49007062     0.19500
C1720       C  0.38104143  0.72405474  0.47990794     0.01600
C1721       C  0.34860891  0.72837520  0.47731152    -0.14400
C1722       C  0.33527451  0.75711880  0.48445586    -0.12200
C1723       C  0.35340272  0.78291116  0.49556825     0.01200
C1724       C  0.38595971  0.77886712  0.49764172    -0.24300
H1725       H  0.37968674  0.61763057  0.45516957     0.09200
H1726       H  0.35392724  0.66744827  0.45876623     0.12700
H1727       H  0.46761523  0.66120485  0.47931030     0.11400
H1728       H  0.47132793  0.71705256  0.48789302     0.12600
H1729       H  0.44675772  0.76704077  0.49951460     0.11700
H1730       H  0.33280955  0.71011916  0.46927297     0.08800
H1731       H  0.31052518  0.75886713  0.47990787     0.12000
H1732       H  0.40074272  0.79855365  0.50470847     0.13900
C1733       C  0.30214657  0.20478779  0.49760695    -0.01600
C1734       C  0.28233592  0.19336956  0.47353762    -0.09600
C1735       C  0.25055929  0.20106417  0.47260047    -0.18500
C1736       C  0.23683084  0.21926995  0.49656494     0.03900
C1737       C  0.25605449  0.22839791  0.52229693     0.18100
C1738       C  0.28814537  0.22187157  0.52220885    -0.19900
C1739       C  0.24315342  0.24400040  0.54806066    -0.21200
C1740       C  0.21141884  0.25074896  0.54879287    -0.19700
C1741       C  0.19200630  0.24334020  0.52316451     0.19500
C1742       C  0.20462961  0.22816970  0.49634221     0.01600
C1743       C  0.18461442  0.22312846  0.47025575    -0.14400
C1744       C  0.15323016  0.23180390  0.47113780    -0.12200
C1745       C  0.14036454  0.24540061  0.49812110     0.01200
C1746       C  0.16007662  0.25117139  0.52409865    -0.24300
H1747       H  0.29095784  0.17857348  0.45504510     0.09200
H1748       H  0.23705047  0.19171702  0.45319907     0.12700
H1749       H  0.30263334  0.23044805  0.54144292     0.11400
H1750       H  0.25765081  0.25068368  0.56800124     0.12600
H1751       H  0.20212332  0.26239389  0.56930925     0.11700
H1752       H  0.19270778  0.21291827  0.44862974     0.08800
H1753       H  0.13873875  0.22707325  0.45067921     0.12000
H1754       H  0.15064035  0.26201607  0.54500720     0.13900
C1755       C  0.35574730  0.23204380  0.49350074    -0.01600
C1756       C  0.33990142  0.25939988  0.48398018    -0.09600
C1757       C  0.35579504  0.28740526  0.47723272    -0.18500
C1758       C  0.38863843  0.28968908  0.47923154     0.03900
C1759       C  0.40514564  0.26217588  0.48765582     0.18100
C1760       C  0.38879021  0.23381711  0.49425747    -0.19900
C1761       C  0.43785796  0.26328526  0.48972965    -0.21200
C1762       C  0.45435288  0.29146882  0.48493132    -0.19700
C1763       C  0.43860425  0.31925068  0.47765657     0.19500
C1764       C  0.40553418  0.31849841  0.47385182     0.01600
C1765       C  0.39064382  0.34691323  0.46589549    -0.14400
C1766       C  0.40740176  0.37518013  0.46448112    -0.12200
C1767       C  0.43961421  0.37627876  0.47030998     0.01200
C1768       C  0.45542468  0.34806279  0.47557296    -0.24300
H1769       H  0.31488309  0.25962300  0.48069906     0.09200
H1770       H  0.34143539  0.30688277  0.47042322     0.12700
H1771       H  0.40181979  0.21291450  0.50016015     0.11400
H1772       H  0.45074876  0.24235439  0.49581477     0.12600
H1773       H  0.47955504  0.29166722  0.48758897     0.11700
H1774       H  0.36589495  0.34842240  0.46164465     0.08800
H1775       H  0.39480106  0.39669388  0.46000203     0.12000
H1776       H  0.48036043  0.34880184  0.48020950     0.13900
C1777       C  0.68740296  0.20129650  0.99867089    -0.01600
C1778       C  0.70503569  0.21412029  0.02371431    -0.09600
C1779       C  0.71124900  0.24636609  0.02581166    -0.18500
C1780       C  0.70086639  0.26733553  0.00223625     0.03900
C1781       C  0.68270778  0.25468068  0.97711260     0.18100
C1782       C  0.67597981  0.22227720  0.97567746    -0.19900
C1783       C  0.67226716  0.27426123  0.95278320    -0.21200
C1784       C  0.68036934  0.30602564  0.95227754    -0.19700
C1785       C  0.69875107  0.31912458  0.97632408     0.19500
C1786       C  0.70872347  0.30016363  0.00204244     0.01600
C1787       C  0.72647430  0.31485725  0.02616386    -0.14400
C1788       C  0.73428615  0.34682652  0.02455230    -0.12200
C1789       C  0.72500612  0.36521709  0.99881358     0.01200
C1790       C  0.70720856  0.35115688  0.97476918    -0.24300
H1791       H  0.71458620  0.19876017  0.04163684     0.09200
H1792       H  0.72511592  0.25394298  0.04567898     0.12700
H1793       H  0.66305854  0.21364353  0.95550604     0.11400
H1794       H  0.65828500  0.26479864  0.93359711     0.12600
H1795       H  0.67239312  0.32040325  0.93278751     0.11700
H1796       H  0.73453254  0.30238238  0.04669962     0.08800
H1797       H  0.74781940  0.35719008  0.04358136     0.12000
H1798       H  0.69932873  0.36533497  0.95506976     0.13900
C1799       C  0.71892821  0.15308480  0.99363247    -0.01600
C1800       C  0.73975806  0.16606877  0.97112764    -0.09600
C1801       C  0.76887560  0.15266445  0.96528149    -0.18500
C1802       C  0.77840349  0.12547939  0.98169316     0.03900
C1803       C  0.75836354  0.11372474  0.00580463     0.18100
C1804       C  0.73018506  0.12854130  0.01265968    -0.19900
C1805       C  0.76594509  0.08648868  0.02251687    -0.21200
C1806       C  0.79289162  0.07036301  0.01563109    -0.19700
C1807       C  0.81353842  0.08171352  0.99267951     0.19500
C1808       C  0.80699023  0.10950544  0.97539149     0.01600
C1809       C  0.82966205  0.12009421  0.95319516    -0.14400
C1810       C  0.85846105  0.10475360  0.95005159    -0.12200
C1811       C  0.86490665  0.07812318  0.96833403     0.01200
C1812       C  0.84150914  0.06597792  0.98818170    -0.24300
H1813       H  0.73262108  0.18571863  0.95661460     0.09200
H1814       H  0.78289717  0.16334359  0.94698963     0.12700
H1815       H  0.71681560  0.11964244  0.03232205     0.11400
H1816       H  0.75062533  0.07724122  0.04071526     0.12600
H1817       H  0.79798813  0.04919915  0.02891254     0.11700
H1818       H  0.82631241  0.14088573  0.93902624     0.08800
H1819       H  0.87617110  0.11460807  0.93459809     0.12000
H1820       H  0.84600502  0.04496410  0.00199857     0.13900
C1821       C  0.25661113  0.36144455  0.99738802    -0.01600
C1822       C  0.25216464  0.34431526  0.96952083    -0.09600
C1823       C  0.25984871  0.31249426  0.96794070    -0.18500
C1824       C  0.27266559  0.29667262  0.99425578     0.03900
C1825       C  0.27724434  0.31419741  0.02240823     0.18100
C1826       C  0.26891552  0.34600263  0.02382534    -0.19900
C1827       C  0.29059060  0.30004318  0.04892515    -0.21200
C1828       C  0.29951299  0.26877978  0.04815747    -0.19700
C1829       C  0.29503600  0.25072221  0.02095591     0.19500
C1830       C  0.28138345  0.26426547  0.99366521     0.01600
C1831       C  0.27665108  0.24460485  0.96725837    -0.14400
C1832       C  0.28522244  0.21298131  0.96797171    -0.12200
C1833       C  0.29940346  0.19949918  0.99469887     0.01200
C1834       C  0.30369065  0.21896768  0.02129432    -0.24300
H1835       H  0.24290071  0.35561064  0.94864341     0.09200
H1836       H  0.25597577  0.30108814  0.94562523     0.12700
H1837       H  0.27297219  0.35900640  0.04541439     0.11400
H1838       H  0.29432365  0.31330511  0.07039940     0.12600
H1839       H  0.30987144  0.25859482  0.06910781     0.11700
H1840       H  0.26580000  0.25277942  0.94586500     0.08800
H1841       H  0.28025090  0.19863382  0.94748015     0.12000
H1842       H  0.31269945  0.20951673  0.04310244     0.13900
C1843       C  0.27284122  0.14755822  0.99019586    -0.01600
C1844       C  0.26567304  0.12922162  0.96331163    -0.09600
C1845       C  0.23723971  0.11313117  0.96031552    -0.18500
C1846       C  0.21423874  0.11511900  0.98376590     0.03900
C1847       C  0.22024245  0.13561692  0.00957864     0.18100
C1848       C  0.24869968  0.15227282  0.01192389    -0.19900
C1849       C  0.19808965  0.13890871  0.03335125    -0.21200
C1850       C  0.17007833  0.12216190  0.03211998    -0.19700
C1851       C  0.16349162  0.10194726  0.00694772     0.19500
C1852       C  0.18537019  0.09788345  0.98238457     0.01600
C1853       C  0.17728938  0.07674726  0.95770662    -0.14400
C1854       C  0.14809781  0.06135262  0.95697282    -0.12200
C1855       C  0.12639060  0.06655960  0.98078005     0.01200
C1856       C  0.13473205  0.08617608  0.00606965    -0.24300
H1857       H  0.28183564  0.12699356  0.94401701     0.09200
H1858       H  0.23401602  0.09929742  0.93931497     0.12700
H1859       H  0.25294934  0.16761990  0.03187935     0.11400
H1860       H  0.20253593  0.15438788  0.05314363     0.12600
H1861       H  0.15334004  0.12519997  0.05091802     0.11700
H1862       H  0.19283821  0.07187419  0.93850985     0.08800
H1863       H  0.14222684  0.04605357  0.93741653     0.12000
H1864       H  0.11842998  0.08967463  0.02520119     0.13900
C1865       C  0.68909322  0.82093869  0.49586091    -0.01600
C1866       C  0.70943799  0.83312614  0.51911474    -0.09600
C1867       C  0.74094109  0.82451334  0.52028439    -0.18500
C1868       C  0.75377888  0.80445998  0.49736913     0.03900
C1869       C  0.73445328  0.79567149  0.47158487     0.18100
C1870       C  0.70270910  0.80374161  0.47112319    -0.19900
C1871       C  0.74678271  0.77837623  0.44664663    -0.21200
C1872       C  0.77797553  0.76949612  0.44687805    -0.19700
C1873       C  0.79729674  0.77647463  0.47268070     0.19500
C1874       C  0.78521001  0.79332763  0.49870684     0.01600
C1875       C  0.80484824  0.79757580  0.52522767    -0.14400
C1876       C  0.83562629  0.78689321  0.52525750    -0.12200
C1877       C  0.84816024  0.77201262  0.49876461     0.01200
C1878       C  0.82862759  0.76664997  0.47263388    -0.24300
H1879       H  0.70138612  0.84905727  0.53691721     0.09200
H1880       H  0.75492301  0.83428002  0.53915515     0.12700
H1881       H  0.68796139  0.79526800  0.45204218     0.11400
H1882       H  0.73224438  0.77185240  0.42668876     0.12600
H1883       H  0.78687501  0.75651138  0.42700614     0.11700
H1884       H  0.79687203  0.80876013  0.54642309     0.08800
H1885       H  0.85000858  0.79127486  0.54587848     0.12000
H1886       H  0.83780882  0.75474776  0.45220104     0.13900
C1887       C  0.55417314  0.64627477  0.52391642    -0.01600
C1888       C  0.58675700  0.64731334  0.52728477    -0.09600
C1889       C  0.60347102  0.67560418  0.52517577    -0.18500
C1890       C  0.58813519  0.70422780  0.51923548     0.03900
C1891       C  0.55488045  0.70359317  0.51830199     0.18100
C1892       C  0.53812810  0.67470820  0.52080273    -0.19900
C1893       C  0.53876892  0.73170496  0.51380220    -0.21200
C1894       C  0.55482102  0.75997997  0.50836726    -0.19700
C1895       C  0.58753836  0.76106046  0.50773169     0.19500
C1896       C  0.60462719  0.73329146  0.51365588     0.01600
C1897       C  0.63752494  0.73574821  0.51347820    -0.14400
C1898       C  0.65281780  0.76437878  0.50776613    -0.12200
C1899       C  0.63624774  0.79205556  0.50075812     0.01200
C1900       C  0.60325326  0.78981162  0.50143706    -0.24300
H1901       H  0.59963432  0.62572735  0.53027498     0.09200
H1902       H  0.62846983  0.67402107  0.52739341     0.12700
H1903       H  0.51290954  0.67419063  0.51825510     0.11400
H1904       H  0.51357699  0.73189723  0.51440747     0.12600
H1905       H  0.54150761  0.78114339  0.50446692     0.11700
H1906       H  0.65234083  0.71599318  0.51809863     0.08800
H1907       H  0.67794383  0.76429097  0.50984146     0.12000
H1908       H  0.58971229  0.81076719  0.49720733     0.13900
C1909       C  0.68574152  0.82138093  0.99771220    -0.01600
C1910       C  0.70048050  0.80897957  0.97098774    -0.09600
C1911       C  0.70867699  0.77732008  0.96931199    -0.18500
C1912       C  0.70371347  0.75667374  0.99502957     0.03900
C1913       C  0.68960742  0.76913745  0.02240543     0.18100
C1914       C  0.68070712  0.80082091  0.02346025    -0.19900
C1915       C  0.68507101  0.75009544  0.04902681    -0.21200
C1916       C  0.69413885  0.71884489  0.04905104    -0.19700
C1917       C  0.70794537  0.70574350  0.02243493     0.19500
C1918       C  0.71284228  0.72435810  0.99493785     0.01600
C1919       C  0.72663165  0.70972852  0.96864995    -0.14400
C1920       C  0.73489786  0.67799971  0.96960628    -0.12200
C1921       C  0.73001116  0.65972694  0.99678012     0.01200
C1922       C  0.71667203  0.67397954  0.02317572    -0.24300
H1923       H  0.70624209  0.82424218  0.95129385     0.09200
H1924       H  0.71969183  0.76996901  0.94785699     0.12700
H1925       H  0.67137927  0.80952164  0.04531820     0.11400
H1926       H  0.67452347  0.75948063  0.07009337     0.12600
H1927       H  0.69027507  0.70479111  0.07007208     0.11700
H1928       H  0.73099824  0.72205262  0.94685426     0.08800
H1929       H  0.74502983  0.66768255  0.94880040     0.12000
H1930       H  0.71231036  0.66010952  0.04423010     0.13900
C1931       C  0.71484515  0.87146025  0.99995408    -0.01600
C1932       C  0.73604119  0.86245582  0.02367829    -0.09600
C1933       C  0.76475175  0.87785151  0.02734136    -0.18500
C1934       C  0.77365768  0.90268859  0.00697779     0.03900
C1935       C  0.75393600  0.90932703  0.98089484     0.18100
C1936       C  0.72559156  0.89296943  0.97697415    -0.19900
C1937       C  0.76207394  0.93296828  0.95929569    -0.21200
C1938       C  0.78909306  0.95086576  0.96353600    -0.19700
C1939       C  0.80872651  0.94525003  0.98925445     0.19500
C1940       C  0.80143035  0.92104088  0.01138551     0.01600
C1941       C  0.82237850  0.91621892  0.03680372    -0.14400
C1942       C  0.85021498  0.93353061  0.03898523    -0.12200
C1943       C  0.85734185  0.95647224  0.01650314     0.01200
C1944       C  0.83634213  0.96293127  0.99227091    -0.24300
H1945       H  0.72939794  0.84471038  0.04085569     0.09200
H1946       H  0.77899509  0.87027198  0.04682824     0.12700
H1947       H  0.71174400  0.89807539  0.95629997     0.11400
H1948       H  0.74717134  0.93800715  0.93925562     0.12600
H1949       H  0.79473996  0.96914049  0.94651716     0.11700
H1950       H  0.81841330  0.89873041  0.05482462     0.08800
H1951       H  0.86682174  0.92812281  0.05749673     0.12000
H1952       H  0.84250247  0.98049282  0.97463517     0.13900
C1953       C  0.29310856  0.82064523  0.99889472    -0.01600
C1954       C  0.27883373  0.80724663  0.02569159    -0.09600
C1955       C  0.27037676  0.77546991  0.02698098    -0.18500
C1956       C  0.27519994  0.75547132  0.00106431     0.03900
C1957       C  0.28846747  0.76895059  0.97342779     0.18100
C1958       C  0.29697047  0.80104226  0.97246498    -0.19900
C1959       C  0.29306639  0.75033833  0.94675443    -0.21200
C1960       C  0.28529318  0.71845728  0.94714111    -0.19700
C1961       C  0.27265040  0.70437318  0.97419196     0.19500
C1962       C  0.26724460  0.72265819  0.00152071     0.01600
C1963       C  0.25448997  0.70716905  0.02821945    -0.14400
C1964       C  0.24805439  0.67484899  0.02799437    -0.12200
C1965       C  0.25373806  0.65686388  0.00116082     0.01200
C1966       C  0.26575660  0.67195133  0.97419108    -0.24300
H1967       H  0.27415155  0.82169248  0.04603341     0.09200
H1968       H  0.25986166  0.76740308  0.04860083     0.12700
H1969       H  0.30584596  0.81056702  0.95056474     0.11400
H1970       H  0.30297259  0.76045982  0.92548661     0.12600
H1971       H  0.28942326  0.70466363  0.92619120     0.11700
H1972       H  0.24958484  0.71923716  0.04984288     0.08800
H1973       H  0.23869011  0.66386134  0.04906200     0.12000
H1974       H  0.27058762  0.65829290  0.95329782     0.13900
C1975       C  0.26720734  0.87178030  0.00238726    -0.01600
C1976       C  0.25837350  0.88685058  0.03061482    -0.09600
C1977       C  0.22803263  0.89740389  0.03541679    -0.18500
C1978       C  0.20458377  0.89307699  0.01243042     0.03900
C1979       C  0.21300437  0.87759430  0.98411542     0.18100
C1980       C  0.24359394  0.86667443  0.97970416    -0.19900
C1981       C  0.19081098  0.87309268  0.96024272    -0.21200
C1982       C  0.16066404  0.88428567  0.96355003    -0.19700
C1983       C  0.15174344  0.89980095  0.99104850     0.19500
C1984       C  0.17321425  0.90384299  0.01629125     0.01600
C1985       C  0.16233447  0.91893959  0.04389627    -0.14400
C1986       C  0.13216415  0.93155422  0.04527531    -0.12200
C1987       C  0.11201669  0.92934486  0.01932235     0.01200
C1988       C  0.12167421  0.91227242  0.99288300    -0.24300
H1989       H  0.27436974  0.88969704  0.05015266     0.09200
H1990       H  0.22360289  0.90872782  0.05757866     0.12700
H1991       H  0.24919438  0.85400059  0.95839748     0.11400
H1992       H  0.19695358  0.86129327  0.93860325     0.12600
H1993       H  0.14425316  0.88103983  0.94428235     0.11700
H1994       H  0.17686933  0.92208769  0.06445930     0.08800
H1995       H  0.12528340  0.94454116  0.06594604     0.12000
H1996       H  0.10604319  0.90994258  0.97281112     0.13900
C1997       C  0.18188208  0.01552472  0.29947498    -0.01600
C1998       C  0.19693224  0.04212805  0.28591036    -0.09600
C1999       C  0.22878787  0.04270393  0.27886275    -0.18500
C2000       C  0.24779044  0.01667127  0.28543721     0.03900
C2001       C  0.23367694  0.99071444  0.30150738     0.18100
C2002       C  0.20141696  0.99075874  0.30926705    -0.19900
C2003       C  0.25183960  0.96461813  0.30934673    -0.21200
C2004       C  0.28339300  0.96357256  0.30122225    -0.19700
C2005       C  0.29787596  0.98862186  0.28506324     0.19500
C2006       C  0.28029418  0.01560473  0.27696132     0.01600
C2007       C  0.29606574  0.04026783  0.26068429    -0.14400
C2008       C  0.32794813  0.03851654  0.25349891    -0.12200
C2009       C  0.34540343  0.01198970  0.26167046     0.01200
C2010       C  0.32993232  0.98695634  0.27724719    -0.24300
H2011       H  0.18336686  0.06231715  0.27894806     0.09200
H2012       H  0.23769235  0.06377963  0.26769452     0.12700
H2013       H  0.19210760  0.97130126  0.32278960     0.11400
H2014       H  0.24148644  0.94466417  0.32162247     0.12600
H2015       H  0.29658479  0.94292355  0.30761881     0.11700
H2016       H  0.28444958  0.06137046  0.25327594     0.08800
H2017       H  0.33901679  0.05817559  0.24139123     0.12000
H2018       H  0.34305452  0.96638227  0.28406594     0.13900
C2019       C  0.80293553  0.01082177  0.30192617    -0.01600
C2020       C  0.78247209  0.98866747  0.31608614    -0.09600
C2021       C  0.75063224  0.98754949  0.30851829    -0.18500
C2022       C  0.73744899  0.00936967  0.28732208     0.03900
C2023       C  0.75716912  0.03382550  0.27562170     0.18100
C2024       C  0.78937482  0.03418363  0.28268532    -0.19900
C2025       C  0.74458302  0.05778434  0.25693565    -0.21200
C2026       C  0.71276624  0.05797181  0.24974383    -0.19700
C2027       C  0.69292464  0.03347956  0.25988145     0.19500
C2028       C  0.70523269  0.00831675  0.27802961     0.01600
C2029       C  0.68491651  0.98288458  0.28553418    -0.14400
C2030       C  0.65340694  0.98316225  0.27670944    -0.12200
C2031       C  0.64076997  0.00891227  0.26050279     0.01200
C2032       C  0.66086439  0.03392601  0.25193393    -0.24300
H2033       H  0.79059873  0.97190794  0.33329844     0.09200
H2034       H  0.73666241  0.96978072  0.32028423     0.12700
H2035       H  0.80427154  0.05247746  0.27268547     0.11400
H2036       H  0.75938258  0.07675508  0.24815047     0.12600
H2037       H  0.70371383  0.07715288  0.23569582     0.11700
H2038       H  0.69285920  0.96222794  0.29783512     0.08800
H2039       H  0.63864048  0.96335053  0.28344907     0.12000
H2040       H  0.65158878  0.05369564  0.23888394     0.13900
C2041       C  0.42464383  0.93237804  0.35463417    -0.01600
C2042       C  0.43275196  0.93743543  0.38619640    -0.09600
C2043       C  0.42000025  0.91879327  0.41003573    -0.18500
C2044       C  0.39859712  0.89403505  0.40319590     0.03900
C2045       C  0.39003705  0.88904658  0.37126645     0.18100
C2046       C  0.40298011  0.90819124  0.34738056    -0.19900
C2047       C  0.36874156  0.86489682  0.36343511    -0.21200
C2048       C  0.35550067  0.84580753  0.38675810    -0.19700
C2049       C  0.36316194  0.85043210  0.41850565     0.19500
C2050       C  0.38516597  0.87433984  0.42697959     0.01600
C2051       C  0.39324175  0.87726828  0.45892912    -0.14400
C2052       C  0.37876718  0.85881888  0.48167759    -0.12200
C2053       C  0.35471840  0.83686202  0.47415664     0.01200
C2054       C  0.34886269  0.83148737  0.44189840    -0.24300
H2055       H  0.44925911  0.95588666  0.39268297     0.09200
H2056       H  0.42737774  0.92461695  0.43358724     0.12700
H2057       H  0.39633055  0.90399511  0.32308410     0.11400
H2058       H  0.36216409  0.86083244  0.33910438     0.12600
H2059       H  0.33894844  0.82750098  0.37993627     0.11700
H2060       H  0.41109075  0.89330862  0.46730983     0.08800
H2061       H  0.38759559  0.86167939  0.50537256     0.12000
H2062       H  0.33263914  0.81288477  0.43506108     0.13900
C2063       C  0.56693675  0.93512294  0.35182296    -0.01600
C2064       C  0.58575901  0.94969173  0.37466083    -0.09600
C2065       C  0.60385578  0.93160825  0.39526044    -0.18500
C2066       C  0.60275500  0.89829465  0.39411638     0.03900
C2067       C  0.58247774  0.88379682  0.37175553     0.18100
C2068       C  0.56576278  0.90221495  0.35020177    -0.19900
C2069       C  0.57831603  0.85105256  0.37165668    -0.21200
C2070       C  0.59248008  0.83252956  0.39456941    -0.19700
C2071       C  0.61271341  0.84609821  0.41684124     0.19500
C2072       C  0.61975916  0.87884585  0.41543201     0.01600
C2073       C  0.64360820  0.89060087  0.43532114    -0.14400
C2074       C  0.65682408  0.87147436  0.45845845    -0.12200
C2075       C  0.64511814  0.84072888  0.46410640     0.01200
C2076       C  0.62516366  0.82738615  0.44114565    -0.24300
H2077       H  0.58697235  0.97512503  0.37611848     0.09200
H2078       H  0.61766704  0.94417042  0.41256736     0.12700
H2079       H  0.55096204  0.89092895  0.33263850     0.11400
H2080       H  0.56287529  0.83984569  0.35464394     0.12600
H2081       H  0.58746999  0.80746306  0.39495180     0.11700
H2082       H  0.65217441  0.91456403  0.43365908     0.08800
H2083       H  0.67381423  0.88190164  0.47443038     0.12000
H2084       H  0.61827551  0.80284112  0.44256505     0.13900
C2085       C  0.42258983  0.08674282  0.35249320    -0.01600
C2086       C  0.42383719  0.07639094  0.38381903    -0.09600
C2087       C  0.40934236  0.09306822  0.40766498    -0.18500
C2088       C  0.39324673  0.12119231  0.40112890     0.03900
C2089       C  0.39095301  0.13112939  0.36927365     0.18100
C2090       C  0.40557847  0.11394181  0.34532580    -0.19900
C2091       C  0.37432586  0.15831000  0.36164749    -0.21200
C2092       C  0.36002552  0.17588128  0.38507340    -0.19700
C2093       C  0.36244531  0.16704770  0.41679387     0.19500
C2094       C  0.37947008  0.13979941  0.42512678     0.01600
C2095       C  0.38333524  0.13306575  0.45726982    -0.14400
C2096       C  0.37040258  0.15196148  0.48015146    -0.12200
C2097       C  0.35125623  0.17785600  0.47259204     0.01200
C2098       C  0.34857709  0.18562726  0.44031169    -0.24300
H2099       H  0.43609257  0.05513504  0.39009728     0.09200
H2100       H  0.41102163  0.08308132  0.43094372     0.12700
H2101       H  0.40406542  0.12207378  0.32115153     0.11400
H2102       H  0.37236194  0.16604285  0.33738430     0.12600
H2103       H  0.34733634  0.19675010  0.37836060     0.11700
H2104       H  0.39757973  0.11412737  0.46575403     0.08800
H2105       H  0.37725791  0.14634624  0.50393127     0.12000
H2106       H  0.33611154  0.20663045  0.43355279     0.13900
C2107       C  0.49765812  0.32055937  0.19496868    -0.01600
C2108       C  0.51914656  0.30917827  0.21731510    -0.09600
C2109       C  0.52001024  0.27741964  0.22545526    -0.18500
C2110       C  0.49981265  0.25527026  0.21090027     0.03900
C2111       C  0.47963156  0.26621734  0.18667981     0.18100
C2112       C  0.47903500  0.29833440  0.17867841    -0.19900
C2113       C  0.46001904  0.24504002  0.17058111    -0.21200
C2114       C  0.45942962  0.21329515  0.17854288    -0.19700
C2115       C  0.47839171  0.20193614  0.20285009     0.19500
C2116       C  0.49908840  0.22265559  0.21926928     0.01600
C2117       C  0.51800825  0.20977822  0.24340715    -0.14400
C2118       C  0.51667041  0.17767214  0.25054927    -0.12200
C2119       C  0.49598789  0.15760457  0.23448885     0.01200
C2120       C  0.47684115  0.16986179  0.21076286    -0.24300
H2121       H  0.53493894  0.32537603  0.22926417     0.09200
H2122       H  0.53676200  0.27103041  0.24327054     0.12700
H2123       H  0.46421472  0.30561757  0.15939928     0.11400
H2124       H  0.44478886  0.25313229  0.15186878     0.12600
H2125       H  0.44384495  0.19754156  0.16573662     0.11700
H2126       H  0.53411674  0.22381999  0.25716801     0.08800
H2127       H  0.53169093  0.16849539  0.26890860     0.12000
H2128       H  0.46120421  0.15417459  0.19789063     0.13900
C2129       C  0.49071797  0.86333137  0.23885705    -0.01600
C2130       C  0.46360228  0.84855706  0.22712483    -0.09600
C2131       C  0.46368174  0.81698121  0.21827957    -0.18500
C2132       C  0.49105935  0.79888625  0.22096061     0.03900
C2133       C  0.51822561  0.81365423  0.23384856     0.18100
C2134       C  0.51785754  0.84552793  0.24252503    -0.19900
C2135       C  0.54573378  0.79661757  0.23766607    -0.21200
C2136       C  0.54689478  0.76516153  0.22888415    -0.19700
C2137       C  0.52067402  0.75001758  0.21575942     0.19500
C2138       C  0.49247802  0.76671846  0.21139229     0.01600
C2139       C  0.46684937  0.75041243  0.19786724    -0.14400
C2140       C  0.46879233  0.71876314  0.18979475    -0.12200
C2141       C  0.49655655  0.70176610  0.19430011     0.01200
C2142       C  0.52236192  0.71805634  0.20752576    -0.24300
H2143       H  0.44232579  0.86168857  0.22382881     0.09200
H2144       H  0.44196202  0.80758110  0.20918762     0.12700
H2145       H  0.53895154  0.85659838  0.25176399     0.11400
H2146       H  0.56651354  0.80769388  0.24756358     0.12600
H2147       H  0.56850319  0.75260187  0.23232693     0.11700
H2148       H  0.44461614  0.76124743  0.19371056     0.08800
H2149       H  0.44753754  0.70761115  0.18138381     0.12000
H2150       H  0.54368257  0.70537371  0.21225623     0.13900
C2151       C  0.66615032  0.14956499  0.02319441    -0.01600
C2152       C  0.65928395  0.11700377  0.02199564    -0.09600
C2153       C  0.64083329  0.10206255  0.04461835    -0.18500
C2154       C  0.62792603  0.11906123  0.06972757     0.03900
C2155       C  0.63438365  0.15189174  0.07117394     0.18100
C2156       C  0.65261585  0.16681218  0.04786101    -0.19900
C2157       C  0.62251068  0.16977885  0.09590360    -0.21200
C2158       C  0.60487444  0.15561908  0.11960245    -0.19700
C2159       C  0.59800029  0.12335140  0.11875824     0.19500
C2160       C  0.60887707  0.10467709  0.09345227     0.01600
C2161       C  0.60000634  0.07247510  0.09292009    -0.14400
C2162       C  0.58148962  0.05940343  0.11667525    -0.12200
C2163       C  0.57168580  0.07771715  0.14195638     0.01200
C2164       C  0.58008750  0.10964587  0.14298721    -0.24300
H2165       H  0.66831876  0.10289691  0.00298908     0.09200
H2166       H  0.63729757  0.07709664  0.04177328     0.12700
H2167       H  0.65539016  0.19205178  0.04906104     0.11400
H2168       H  0.62724897  0.19486586  0.09716633     0.12600
H2169       H  0.59639171  0.17005529  0.13863566     0.11700
H2170       H  0.60668473  0.05678474  0.07435958     0.08800
H2171       H  0.57519389  0.03463553  0.11554247     0.12000
H2172       H  0.57210515  0.12395856  0.16236534     0.13900
C2173       C  0.66366306  0.86679390  0.03073468    -0.01600
C2174       C  0.63255739  0.85631750  0.03468734    -0.09600
C2175       C  0.61369427  0.86839424  0.05832527    -0.18500
C2176       C  0.62528444  0.89146554  0.07932185     0.03900
C2177       C  0.65735127  0.90002698  0.07741506     0.18100
C2178       C  0.67576660  0.88865084  0.05287000    -0.19900
C2179       C  0.67068715  0.92067600  0.09951568    -0.21200
C2180       C  0.65257247  0.93337208  0.12324821    -0.19700
C2181       C  0.62037158  0.92724316  0.12421174     0.19500
C2182       C  0.60612002  0.90676068  0.10178689     0.01600
C2183       C  0.57314328  0.90378967  0.10173892    -0.14400
C2184       C  0.55515341  0.92026692  0.12330414    -0.12200
C2185       C  0.56950739  0.93920893  0.14610237     0.01200
C2186       C  0.60210327  0.94232315  0.14678001    -0.24300
H2187       H  0.62239782  0.83948657  0.01836350     0.09200
H2188       H  0.59008571  0.85926637  0.05960233     0.12700
H2189       H  0.69899952  0.89856064  0.05060622     0.11400
H2190       H  0.69530971  0.92696849  0.09850039     0.12600
H2191       H  0.66357559  0.94909408  0.14015310     0.11700
H2192       H  0.56058199  0.88981425  0.08459940     0.08800
H2193       H  0.52992442  0.91780898  0.12252237     0.12000
H2194       H  0.61312259  0.95745147  0.16424322     0.13900
C2195       C  0.41572758  0.93743199  0.14573277    -0.01600
C2196       C  0.40903269  0.90514173  0.14785732    -0.09600
C2197       C  0.39137868  0.89002831  0.12438183    -0.18500
C2198       C  0.37936247  0.90715892  0.09846316     0.03900
C2199       C  0.38559964  0.94014169  0.09729845     0.18100
C2200       C  0.40406894  0.95468894  0.12040532    -0.19900
C2201       C  0.37314668  0.95865289  0.07323374    -0.21200
C2202       C  0.35448388  0.94518025  0.05011079    -0.19700
C2203       C  0.34841302  0.91278832  0.05012631     0.19500
C2204       C  0.36103576  0.89310081  0.07388719     0.01600
C2205       C  0.35509661  0.86034482  0.07157160    -0.14400
C2206       C  0.33654578  0.84791230  0.04719111    -0.12200
C2207       C  0.32229388  0.86781040  0.02489148     0.01200
C2208       C  0.32951828  0.90017850  0.02635894    -0.24300
H2209       H  0.41782590  0.89151625  0.16751973     0.09200
H2210       H  0.38708483  0.86513515  0.12736710     0.12700
H2211       H  0.40877976  0.97982543  0.11913542     0.11400
H2212       H  0.37762951  0.98381465  0.07245100     0.12600
H2213       H  0.34488181  0.96021648  0.03192508     0.11700
H2214       H  0.36494234  0.84372622  0.08794717     0.08800
H2215       H  0.33376866  0.82265759  0.04607958     0.12000
H2216       H  0.31953719  0.91588515  0.00895507     0.13900
C2217       C  0.32084067  0.15308476  0.02727313    -0.01600
C2218       C  0.30819227  0.12904131  0.04660227    -0.09600
C2219       C  0.32556468  0.11561628  0.07085477    -0.18500
C2220       C  0.35690450  0.12481166  0.07646835     0.03900
C2221       C  0.36976565  0.14934537  0.05759214     0.18100
C2222       C  0.35161089  0.16361906  0.03402999    -0.19900
C2223       C  0.40114823  0.15847921  0.06131783    -0.21200
C2224       C  0.42029807  0.14308678  0.08283262    -0.19700
C2225       C  0.40835194  0.11867619  0.10171326     0.19500
C2226       C  0.37624317  0.10970496  0.09931599     0.01600
C2227       C  0.36490503  0.08591297  0.11986608    -0.14400
C2228       C  0.38461770  0.07149873  0.14157185    -0.12200
C2229       C  0.41626349  0.07978372  0.14322629     0.01200
C2230       C  0.42818339  0.10329130  0.12321795    -0.24300
H2231       H  0.28559328  0.11844553  0.04214120     0.09200
H2232       H  0.31419154  0.09679206  0.08365842     0.12700
H2233       H  0.36217680  0.18161783  0.01915839     0.11400
H2234       H  0.41116747  0.17715521  0.04693645     0.12600
H2235       H  0.44462331  0.15033282  0.08471819     0.11700
H2236       H  0.34081546  0.07823443  0.12020817     0.08800
H2237       H  0.37507879  0.05361338  0.15721870     0.12000
H2238       H  0.45265664  0.11009772  0.12497176     0.13900
C2239       C  0.68338968  0.20837562  0.49915856    -0.01600
C2240       C  0.69618645  0.23282425  0.51788344    -0.09600
C2241       C  0.72808589  0.23834718  0.52032878    -0.18500
C2242       C  0.74945526  0.21955321  0.50425375     0.03900
C2243       C  0.73736889  0.19343706  0.48698384     0.18100
C2244       C  0.70473961  0.18719745  0.48588809    -0.19900
C2245       C  0.75797526  0.17417253  0.47056476    -0.21200
C2246       C  0.78997156  0.18120882  0.46983606    -0.19700
C2247       C  0.80234854  0.20713899  0.48629482     0.19500
C2248       C  0.78232245  0.22608764  0.50456602     0.01600
C2249       C  0.79603997  0.25099254  0.52219564    -0.14400
C2250       C  0.82810216  0.25717668  0.52123155    -0.12200
C2251       C  0.84754223  0.23936657  0.50222737     0.01200
C2252       C  0.83461836  0.21430088  0.48477099    -0.24300
H2253       H  0.68147210  0.24819648  0.53135610     0.09200
H2254       H  0.73508097  0.25800336  0.53475339     0.12700
H2255       H  0.69609240  0.16616919  0.47424527     0.11400
H2256       H  0.74919581  0.15405146  0.45746434     0.12600
H2257       H  0.80514130  0.16629860  0.45624326     0.11700
H2258       H  0.78278767  0.26608542  0.53722787     0.08800
H2259       H  0.83774533  0.27637367  0.53510620     0.12000
H2260       H  0.84982359  0.19998786  0.47054895     0.13900
C2261       C  0.56164345  0.09391575  0.35094163    -0.01600
C2262       C  0.54663515  0.09805233  0.37985157    -0.09600
C2263       C  0.55889363  0.11868579  0.40231265    -0.18500
C2264       C  0.58703856  0.13563736  0.39678966     0.03900
C2265       C  0.60299580  0.13042251  0.36811855     0.18100
C2266       C  0.58980247  0.11038517  0.34515155    -0.19900
C2267       C  0.63232872  0.14466660  0.36300410    -0.21200
C2268       C  0.64674126  0.16272943  0.38647935    -0.19700
C2269       C  0.63143696  0.16839291  0.41496045     0.19500
C2270       C  0.60055892  0.15646963  0.41943359     0.01600
C2271       C  0.58424931  0.16623064  0.44622090    -0.14400
C2272       C  0.59929025  0.18355076  0.46954924    -0.12200
C2273       C  0.63163167  0.19060572  0.46812541     0.01200
C2274       C  0.64681335  0.18532431  0.43926937    -0.24300
H2275       H  0.52500777  0.08554373  0.38506690     0.09200
H2276       H  0.54637882  0.12011360  0.42424203     0.12700
H2277       H  0.60190812  0.10697430  0.32308022     0.11400
H2278       H  0.64472063  0.14083435  0.34118565     0.12600
H2279       H  0.67001044  0.17223485  0.38236420     0.11700
H2280       H  0.55981574  0.16076169  0.44979346     0.08800
H2281       H  0.58601730  0.18927971  0.49036292     0.12000
H2282       H  0.67039722  0.19393226  0.43554156     0.13900
C2283       C  0.63139727  0.23535902  0.50343973    -0.01600
C2284       C  0.60943982  0.24172692  0.52713101    -0.09600
C2285       C  0.59925538  0.27238722  0.53243971    -0.18500
C2286       C  0.60987095  0.29779356  0.51356525     0.03900
C2287       C  0.62963449  0.29085474  0.48779699     0.18100
C2288       C  0.63970332  0.26008813  0.48281209    -0.19900
C2289       C  0.63935042  0.31465902  0.46705580    -0.21200
C2290       C  0.62908504  0.34520402  0.47080865    -0.19700
C2291       C  0.60952629  0.35279903  0.49586504     0.19500
C2292       C  0.60050843  0.32957660  0.51834413     0.01600
C2293       C  0.58212017  0.33922198  0.54418304    -0.14400
C2294       C  0.57052479  0.36987200  0.54570058    -0.12200
C2295       C  0.57713089  0.39152404  0.52165533     0.01200
C2296       C  0.59778438  0.38325767  0.49770269    -0.24300
H2297       H  0.59974896  0.22317451  0.54171023     0.09200
H2298       H  0.58261640  0.27545137  0.55113562     0.12700
H2299       H  0.65535813  0.25541283  0.46341176     0.11400
H2300       H  0.65449339  0.30949152  0.44740265     0.12600
H2301       H  0.63623514  0.36295645  0.45379627     0.11700
H2302       H  0.57573258  0.32336783  0.56305343     0.08800
H2303       H  0.55477234  0.37597283  0.56454390     0.12000
H2304       H  0.60332844  0.40024095  0.47932342     0.13900
C2305       C  0.18418995  0.00569326  0.69436265    -0.01600
C2306       C  0.19591129  0.98372363  0.71619009    -0.09600
C2307       C  0.22729249  0.98367298  0.72497385    -0.18500
C2308       C  0.24878781  0.00552264  0.71195825     0.03900
C2309       C  0.23740909  0.02727520  0.68927495     0.18100
C2310       C  0.20574389  0.02664711  0.68012376    -0.19900
C2311       C  0.25774060  0.04958544  0.67576943    -0.21200
C2312       C  0.28912931  0.05079971  0.68432814    -0.19700
C2313       C  0.30111183  0.02942168  0.70625949     0.19500
C2314       C  0.28120223  0.00631859  0.72031383     0.01600
C2315       C  0.29476663  0.98474630  0.74171153    -0.14400
C2316       C  0.32677433  0.98576166  0.74833084    -0.12200
C2317       C  0.34613791  0.00867626  0.73452737     0.01200
C2318       C  0.33308987  0.03066061  0.71378505    -0.24300
H2319       H  0.18025729  0.96664926  0.72706796     0.09200
H2320       H  0.23386021  0.96632188  0.74221941     0.12700
H2321       H  0.19839359  0.04238920  0.66159493     0.11400
H2322       H  0.24927538  0.06633983  0.65854497     0.12600
H2323       H  0.30422555  0.06839480  0.67344867     0.11700
H2324       H  0.28142931  0.96647021  0.75335569     0.08800
H2325       H  0.33643942  0.96858392  0.76442559     0.12000
H2326       H  0.34811289  0.04816405  0.70260934     0.13900
C2327       C  0.63868111  0.01112190  0.73338789    -0.01600
C2328       C  0.65854490  0.03529362  0.74402478    -0.09600
C2329       C  0.69026849  0.03579322  0.73615215    -0.18500
C2330       C  0.70314338  0.01231313  0.71666164     0.03900
C2331       C  0.68280854  0.98797164  0.70570689     0.18100
C2332       C  0.65109859  0.98738726  0.71440627    -0.19900
C2333       C  0.69416596  0.96451855  0.68587785    -0.21200
C2334       C  0.72543011  0.96454241  0.67685155    -0.19700
C2335       C  0.74631737  0.98780112  0.68770824     0.19500
C2336       C  0.73538330  0.01204918  0.70769743     0.01600
C2337       C  0.75726053  0.03487363  0.71805864    -0.14400
C2338       C  0.78877503  0.03265570  0.71059147    -0.12200
C2339       C  0.80028085  0.00782049  0.69220209     0.01200
C2340       C  0.77820953  0.98648317  0.67930166    -0.24300
H2341       H  0.64951824  0.05388603  0.75863375     0.09200
H2342       H  0.70397535  0.05508828  0.74547267     0.12700
H2343       H  0.63579021  0.96882753  0.70557589     0.11400
H2344       H  0.67873234  0.94598285  0.67726792     0.12600
H2345       H  0.73342700  0.94592525  0.66164153     0.11700
H2346       H  0.75101357  0.05431127  0.73281740     0.08800
H2347       H  0.80479081  0.04991465  0.72060939     0.12000
H2348       H  0.78547999  0.96823914  0.66345725     0.13900
C2349       C  0.34430575  0.18479031  0.53151411    -0.01600
C2350       C  0.33045816  0.15509161  0.53803088    -0.09600
C2351       C  0.34232470  0.13577163  0.56173174    -0.18500
C2352       C  0.36712476  0.14637809  0.58103605     0.03900
C2353       C  0.37582588  0.17872185  0.57923592     0.18100
C2354       C  0.36451628  0.19766931  0.55451708    -0.19900
C2355       C  0.39689429  0.19140407  0.60124206    -0.21200
C2356       C  0.41081657  0.17216038  0.62373634    -0.19700
C2357       C  0.40551141  0.13954530  0.62341879     0.19500
C2358       C  0.38385614  0.12607541  0.60174954     0.01600
C2359       C  0.38142962  0.09281572  0.60031197    -0.14400
C2360       C  0.39971221  0.07377469  0.61989170    -0.12200
C2361       C  0.42007219  0.08733865  0.64202833     0.01200
C2362       C  0.42246889  0.12021044  0.64397507    -0.24300
H2363       H  0.31295844  0.14529181  0.52222243     0.09200
H2364       H  0.33230879  0.11241220  0.56401991     0.12700
H2365       H  0.37276663  0.22176721  0.55262274     0.11400
H2366       H  0.40302173  0.21623292  0.60074091     0.12600
H2367       H  0.42715636  0.18262229  0.64036887     0.11700
H2368       H  0.36640219  0.08101512  0.58348406     0.08800
H2369       H  0.39736626  0.04841439  0.61829817     0.12000
H2370       H  0.43828370  0.13073346  0.66111315     0.13900
C2371       C  0.56842490  0.08421764  0.64237780    -0.01600
C2372       C  0.58373682  0.11217883  0.65144828    -0.09600
C2373       C  0.60104519  0.12990505  0.62998077    -0.18500
C2374       C  0.60380645  0.12022638  0.59841366     0.03900
C2375       C  0.58921607  0.09126579  0.58946060     0.18100
C2376       C  0.57168114  0.07360750  0.61139281    -0.19900
C2377       C  0.59167325  0.08049368  0.55850342    -0.21200
C2378       C  0.60694744  0.09865883  0.53586767    -0.19700
C2379       C  0.61989935  0.12808595  0.54366194     0.19500
C2380       C  0.61941639  0.13887356  0.57516357     0.01600
C2381       C  0.63390805  0.16825367  0.58176114    -0.14400
C2382       C  0.64478426  0.18770441  0.55751443    -0.12200
C2383       C  0.64094577  0.17901909  0.52582466     0.01200
C2384       C  0.63195695  0.14746029  0.51977099    -0.24300
H2385       H  0.58188294  0.12092028  0.67528163     0.09200
H2386       H  0.61146385  0.15136359  0.63878377     0.12700
H2387       H  0.56042593  0.05172643  0.60426650     0.11400
H2388       H  0.58102425  0.05826857  0.55156475     0.12600
H2389       H  0.60759359  0.09016342  0.51184982     0.11700
H2390       H  0.63629403  0.17740715  0.60526853     0.08800
H2391       H  0.65418133  0.21064573  0.56361593     0.12000
H2392       H  0.63264380  0.13818398  0.49608568     0.13900
C2393       C  0.64019476  0.84551763  0.52350100    -0.01600
C2394       C  0.64575513  0.83772157  0.55531299    -0.09600
C2395       C  0.63276585  0.85512815  0.57996104    -0.18500
C2396       C  0.61264313  0.88062229  0.57380907     0.03900
C2397       C  0.60597044  0.88772472  0.54191535     0.18100
C2398       C  0.61876402  0.86996250  0.51773041    -0.19900
C2399       C  0.58578787  0.91215664  0.53397451    -0.21200
C2400       C  0.57150178  0.92953341  0.55717757    -0.19700
C2401       C  0.57694601  0.92286736  0.58892030     0.19500
C2402       C  0.59787434  0.89862702  0.59785571     0.01600
C2403       C  0.60262999  0.89333909  0.63038017    -0.14400
C2404       C  0.58661233  0.91076645  0.65289350    -0.12200
C2405       C  0.56539187  0.93409180  0.64384149     0.01200
C2406       C  0.56109584  0.94016968  0.61171824    -0.24300
H2407       H  0.66013961  0.81776624  0.56115575     0.09200
H2408       H  0.63842198  0.84770821  0.60357771     0.12700
H2409       H  0.61021881  0.87480042  0.49430104     0.11400
H2410       H  0.58078229  0.91773284  0.50955163     0.12600
H2411       H  0.55576653  0.94808829  0.55021566     0.11700
H2412       H  0.61845923  0.87581778  0.63911151     0.08800
H2413       H  0.59079613  0.90572537  0.67755582     0.12000
H2414       H  0.54508182  0.95830179  0.60426474     0.13900
C2415       C  0.34601344  0.83150119  0.53261409    -0.01600
C2416       C  0.33486320  0.86221981  0.53721065    -0.09600
C2417       C  0.34689542  0.88131880  0.56089867    -0.18500
C2418       C  0.36993452  0.87004666  0.58156793     0.03900
C2419       C  0.37653304  0.83738414  0.58101070     0.18100
C2420       C  0.36445752  0.81824977  0.55664005    -0.19900
C2421       C  0.39628418  0.82457360  0.60392929    -0.21200
C2422       C  0.41063354  0.84386830  0.62637779    -0.19700
C2423       C  0.40685014  0.87656614  0.62534727     0.19500
C2424       C  0.38686390  0.89016073  0.60246672     0.01600
C2425       C  0.38604749  0.92338891  0.60019145    -0.14400
C2426       C  0.40378279  0.94232883  0.62047898    -0.12200
C2427       C  0.42206361  0.92876762  0.64406034     0.01200
C2428       C  0.42344575  0.89590828  0.64653092    -0.24300
H2429       H  0.31898626  0.87260279  0.52031576     0.09200
H2430       H  0.33834269  0.90503490  0.56204491     0.12700
H2431       H  0.37084519  0.79375502  0.55573005     0.11400
H2432       H  0.40097919  0.79959209  0.60424688     0.12600
H2433       H  0.42585849  0.83331309  0.64378628     0.11700
H2434       H  0.37270167  0.93533347  0.58229650     0.08800
H2435       H  0.40261508  0.96769315  0.61825525     0.12000
H2436       H  0.43803993  0.88545403  0.66458055     0.13900
C2437       C  0.49098543  0.15903013  0.75374210    -0.01600
C2438       C  0.46311999  0.17569890  0.74954914    -0.09600
C2439       C  0.46103577  0.20742291  0.75819183    -0.18500
C2440       C  0.48683442  0.22373875  0.77171828     0.03900
C2441       C  0.51514897  0.20693375  0.77536838     0.18100
C2442       C  0.51705488  0.17520184  0.76613733    -0.19900
C2443       C  0.54138387  0.22170169  0.78880238    -0.21200
C2444       C  0.54027018  0.25282525  0.79861511    -0.19700
C2445       C  0.51292740  0.27022230  0.79516827     0.19500
C2446       C  0.48574406  0.25599681  0.78177251     0.01600
C2447       C  0.45901424  0.27492253  0.77857914    -0.14400
C2448       C  0.45967867  0.30672301  0.78732554    -0.12200
C2449       C  0.48664348  0.32117952  0.80041996     0.01200
C2450       C  0.51316302  0.30209891  0.80424360    -0.24300
H2451       H  0.44251454  0.16401062  0.74001750     0.09200
H2452       H  0.43877065  0.21839877  0.75448258     0.12700
H2453       H  0.53868572  0.16272580  0.76982010     0.11400
H2454       H  0.56300117  0.20904853  0.79180297     0.12600
H2455       H  0.56113095  0.26346461  0.80879854     0.11700
H2456       H  0.43744541  0.26604108  0.76859286     0.08800
H2457       H  0.43903713  0.32052395  0.78292771     0.12000
H2458       H  0.53495538  0.31216714  0.81269119     0.13900
C2459       C  0.49431626  0.86243123  0.76186251    -0.01600
C2460       C  0.52149713  0.84940624  0.77482946    -0.09600
C2461       C  0.52275207  0.81749416  0.78276874    -0.18500
C2462       C  0.49677296  0.79713297  0.77775284     0.03900
C2463       C  0.46936991  0.81029884  0.76431636     0.18100
C2464       C  0.46828895  0.84260847  0.75679912    -0.19900
C2465       C  0.44313338  0.79112109  0.75845005    -0.21200
C2466       C  0.44343921  0.75915487  0.76563328    -0.19700
C2467       C  0.46986902  0.74551293  0.77921258     0.19500
C2468       C  0.49689489  0.76426804  0.78557371     0.01600
C2469       C  0.52286366  0.74920889  0.79926135    -0.14400
C2470       C  0.52185474  0.71715265  0.80677414    -0.12200
C2471       C  0.49483683  0.69849161  0.80125653     0.01200
C2472       C  0.46935185  0.71313375  0.78637922    -0.24300
H2473       H  0.54190612  0.86409413  0.77944429     0.09200
H2474       H  0.54439988  0.80953611  0.79284894     0.12700
H2475       H  0.44714384  0.85229032  0.74679281     0.11400
H2476       H  0.42219194  0.80091203  0.74814120     0.12600
H2477       H  0.42272238  0.74501431  0.76069378     0.11700
H2478       H  0.54450984  0.76150083  0.80426062     0.08800
H2479       H  0.54305386  0.70709774  0.81598136     0.12000
H2480       H  0.44880030  0.69906538  0.78053354     0.13900
C2481       C  0.41740666  0.08272331  0.84899719    -0.01600
C2482       C  0.40797798  0.06446960  0.87470067    -0.09600
C2483       C  0.39176657  0.07763133  0.89937633    -0.18500
C2484       C  0.38445299  0.10994245  0.89937716     0.03900
C2485       C  0.39450987  0.12876698  0.87349117     0.18100
C2486       C  0.41058070  0.11493328  0.84825317    -0.19900
C2487       C  0.38837285  0.16108656  0.87312568    -0.21200
C2488       C  0.37181293  0.17488324  0.89760541    -0.19700
C2489       C  0.36056824  0.15661579  0.92281252     0.19500
C2490       C  0.36705673  0.12393031  0.92398915     0.01600
C2491       C  0.35515922  0.10621720  0.94938060    -0.14400
C2492       C  0.33609691  0.11970827  0.97148670    -0.12200
C2493       C  0.32848502  0.15183376  0.97037089     0.01200
C2494       C  0.34222117  0.17051940  0.94644249    -0.24300
H2495       H  0.41299406  0.03955301  0.87562687     0.09200
H2496       H  0.38550819  0.06162257  0.91805675     0.12700
H2497       H  0.41827040  0.12921308  0.82845125     0.11400
H2498       H  0.39623682  0.17574069  0.85368702     0.12600
H2499       H  0.36716572  0.19985662  0.89644554     0.11700
H2500       H  0.35908540  0.08147825  0.95253944     0.08800
H2501       H  0.32629634  0.10438549  0.98945048     0.12000
H2502       H  0.33828250  0.19553900  0.94540251     0.13900
C2503       C  0.31749975  0.86694117  0.96760441    -0.01600
C2504       C  0.34779519  0.85534506  0.96238721    -0.09600
C2505       C  0.36714553  0.86761163  0.93876430    -0.18500
C2506       C  0.35703058  0.89217889  0.91893410     0.03900
C2507       C  0.32581701  0.90252747  0.92253234     0.18100
C2508       C  0.30674630  0.89045325  0.94687231    -0.19900
C2509       C  0.31400674  0.92562870  0.90232852    -0.21200
C2510       C  0.33265848  0.93909469  0.87900644    -0.19700
C2511       C  0.36395796  0.93061582  0.87593143     0.19500
C2512       C  0.37679971  0.90723434  0.89603055     0.01600
C2513       C  0.40907115  0.90082714  0.89298368    -0.14400
C2514       C  0.42763225  0.91702471  0.87096617    -0.12200
C2515       C  0.41452261  0.93944608  0.85091477     0.01200
C2516       C  0.38265902  0.94588212  0.85322593    -0.24300
H2517       H  0.35704096  0.83728341  0.97773692     0.09200
H2518       H  0.39002694  0.85755709  0.93677789     0.12700
H2519       H  0.28414848  0.90082981  0.95025305     0.11400
H2520       H  0.29013852  0.93344247  0.90463929     0.12600
H2521       H  0.32273841  0.95691129  0.86378960     0.11700
H2522       H  0.42074875  0.88394430  0.90773268     0.08800
H2523       H  0.45225432  0.91171316  0.86927286     0.12000
H2524       H  0.37257964  0.96337603  0.83769569     0.13900
C2525       C  0.56934002  0.94295209  0.85257352    -0.01600
C2526       C  0.58039771  0.96148536  0.87745475    -0.09600
C2527       C  0.59865384  0.94854672  0.90131658    -0.18500
C2528       C  0.60596483  0.91618363  0.90144826     0.03900
C2529       C  0.59432558  0.89731578  0.87628213     0.18100
C2530       C  0.57655613  0.91089130  0.85190423    -0.19900
C2531       C  0.60032205  0.86502361  0.87577180    -0.21200
C2532       C  0.61745158  0.85099631  0.89984683    -0.19700
C2533       C  0.62949561  0.86896282  0.92481551     0.19500
C2534       C  0.62415738  0.90186595  0.92575637     0.01600
C2535       C  0.63713647  0.91902072  0.95108385    -0.14400
C2536       C  0.65497648  0.90430887  0.97410158    -0.12200
C2537       C  0.66096629  0.87176006  0.97328614     0.01200
C2538       C  0.64688688  0.85415740  0.94880303    -0.24300
H2539       H  0.57526526  0.98636517  0.87820132     0.09200
H2540       H  0.60639146  0.96454184  0.91942838     0.12700
H2541       H  0.56779566  0.89641445  0.83273167     0.11400
H2542       H  0.59149077  0.85044932  0.85673109     0.12600
H2543       H  0.62150162  0.82591397  0.89879726     0.11700
H2544       H  0.63430777  0.94399371  0.95373474     0.08800
H2545       H  0.66475560  0.91874854  0.99276677     0.12000
H2546       H  0.64901367  0.82889876  0.94808568     0.13900
C2547       C  0.56928724  0.08362240  0.84907981    -0.01600
C2548       C  0.60145432  0.08607243  0.84383758    -0.09600
C2549       C  0.62095843  0.10104264  0.86546525    -0.18500
C2550       C  0.60873860  0.11451810  0.89303920     0.03900
C2551       C  0.57581685  0.11384444  0.89731878     0.18100
C2552       C  0.55642660  0.09760299  0.87580927    -0.19900
C2553       C  0.56266369  0.12962850  0.92282906    -0.21200
C2554       C  0.58165394  0.14595372  0.94415940    -0.19700
C2555       C  0.61427576  0.14528404  0.94149039     0.19500
C2556       C  0.62814414  0.12874415  0.91638810     0.01600
C2557       C  0.66082068  0.12552318  0.91653613    -0.14400
C2558       C  0.67903387  0.13766378  0.94085316    -0.12200
C2559       C  0.66584545  0.15515944  0.96549544     0.01200
C2560       C  0.63315065  0.15963444  0.96463542    -0.24300
H2561       H  0.61169438  0.07592984  0.82297406     0.09200
H2562       H  0.64540721  0.10237810  0.85952694     0.12700
H2563       H  0.53135364  0.09651923  0.87937894     0.11400
H2564       H  0.53755875  0.12965740  0.92608553     0.12600
H2565       H  0.57081101  0.15817395  0.96351446     0.11700
H2566       H  0.67289494  0.11174380  0.89929896     0.08800
H2567       H  0.70335281  0.13162660  0.94029988     0.12000
H2568       H  0.62217159  0.17243196  0.98354439     0.13900
loop_ 
_geom_bond_atom_site_label_1 
_geom_bond_atom_site_label_2 
_geom_bond_distance 
_geom_bond_site_symmetry_2 
_ccdc_geom_bond_type 
O1          Zr37   2.444       .  S
O1           C12   1.293       .  A
O2          Zr36   2.458       .  S
O2           C13   1.296       .  A
O3           Zr9   2.460       .  S
O3           C14   1.297       .  A
O4           Zr9   2.469       .  S
O4           C15   1.299       .  A
O5          Zr39   2.438       .  S
O5           C15   1.292       .  A
O6          Zr38   2.437       .  S
O6           C14   1.292   1_565  A
O7           Zr9   2.411       .  S
O7           C13   1.289       .  A
O8           Zr9   2.423       .  S
O8           C12   1.290       .  A
Zr9          O10   2.345       .  S
Zr9          O11   2.341       .  S
Zr9          O19   2.334       .  S
Zr9          O17   2.339       .  S
O10         Zr36   2.351       .  S
O10         Zr39   2.340       .  S
O11         Zr37   2.346       .  S
O11         Zr38   2.339   1_545  S
C12        C2547   1.469       .  S
C13        C2371   1.479       .  S
C14        C2327   1.484       .  S
C15        C2437   1.496       .  S
H16          O17   0.965       .  S
O17         Zr36   2.340       .  S
O17         Zr38   2.340   1_545  S
H18          O19   0.965       .  S
O19         Zr37   2.336       .  S
O19         Zr39   2.336       .  S
O20         Zr36   2.453   1_565  S
O20          C43   1.295       .  A
O21         Zr37   2.457   1_565  S
O21          C44   1.295       .  A
O22         Zr38   2.428       .  S
O22          C45   1.291       .  A
O23         Zr39   2.418       .  S
O23          C46   1.287       .  A
O24         Zr39   2.437       .  S
O24          C47   1.291       .  A
O25         Zr38   2.442       .  S
O25          C48   1.292       .  A
O26         Zr40   2.467       .  S
O26          C49   1.297       .  A
O27         Zr40   2.449       .  S
O27          C50   1.295   1_565  A
O28         Zr38   2.432       .  S
O28          C49   1.291       .  A
O29         Zr39   2.435       .  S
O29          C50   1.292       .  A
O30         Zr36   2.452   1_565  S
O30          C45   1.296       .  A
O31         Zr37   2.438   1_565  S
O31          C48   1.293       .  A
O32         Zr37   2.428       .  S
O32          C47   1.291       .  A
O33         Zr36   2.474       .  S
O33          C46   1.298       .  A
O34         Zr40   2.426       .  S
O34          C43   1.290       .  A
O35         Zr40   2.433       .  S
O35          C44   1.291       .  A
Zr36         O42   2.356   1_545  S
Zr36         O54   2.336       .  S
Zr37         O41   2.342       .  S
Zr37         O52   2.331   1_545  S
Zr38         O42   2.343       .  S
Zr38         O52   2.337       .  S
Zr39         O41   2.344       .  S
Zr39         O54   2.347       .  S
Zr40         O41   2.345   1_565  S
Zr40         O42   2.341       .  S
Zr40         O54   2.352   1_565  S
Zr40         O52   2.336       .  S
C43        C2427   1.469       .  S
C44        C2515   1.473       .  S
C45        C2405   1.486       .  S
C46        C2361   1.476       .  S
C47        C2481   1.469       .  S
C48        C2525   1.475       .  S
C49        C2459   1.491       .  S
C50        C2317   1.476       .  S
H51          O52   0.965       .  S
H53          O54   0.965       .  S
C55        C2239   1.558       .  S
C55        C2273   1.554       .  S
C55        C2283   1.556       .  S
C55        C2383   1.553       .  S
O56         Zr92   2.436       .  S
O56          C67   1.292       .  A
O57         Zr91   2.431       .  S
O57          C68   1.291       .  A
O58         Zr64   2.441       .  S
O58          C69   1.295       .  A
O59         Zr64   2.465   1_565  S
O59          C70   1.297       .  A
O60         Zr94   2.416       .  S
O60          C70   1.288       .  A
O61         Zr93   2.440       .  S
O61          C69   1.293       .  A
O62         Zr64   2.446   1_565  S
O62          C68   1.295       .  A
O63         Zr64   2.443       .  S
O63          C67   1.295       .  A
Zr64         O65   2.341   1_545  S
Zr64         O66   2.344       .  S
Zr64         O74   2.333       .  S
Zr64         O72   2.340       .  S
O65         Zr91   2.346       .  S
O65         Zr94   2.339       .  S
O66         Zr92   2.345       .  S
O66         Zr93   2.345       .  S
C67        C2261   1.483       .  S
C68        C2041   1.485       .  S
C69        C2085   1.485       .  S
C70        C2063   1.473       .  S
H71          O72   0.965       .  S
O72         Zr91   2.337   1_545  S
O72         Zr93   2.342       .  S
H73          O74   0.965       .  S
O74         Zr92   2.341       .  S
O74         Zr94   2.340   1_545  S
O75         Zr91   2.432       .  S
O75          C98   1.291       .  A
O76         Zr92   2.439       .  S
O76          C99   1.292       .  A
O77         Zr93   2.459       .  S
O77         C100   1.297       .  A
O78         Zr94   2.441       .  S
O78         C101   1.293       .  A
O79         Zr94   2.442       .  S
O79         C102   1.293   1_565  A
O80         Zr93   2.443       .  S
O80         C103   1.293       .  A
O81         Zr95   2.449       .  S
O81         C104   1.293       .  A
O82         Zr95   2.449   1_565  S
O82         C105   1.294       .  A
O83         Zr93   2.438       .  S
O83         C104   1.292       .  A
O84         Zr94   2.421       .  S
O84         C105   1.288       .  A
O85         Zr91   2.467       .  S
O85         C100   1.297   1_565  A
O86         Zr92   2.440       .  S
O86         C103   1.293       .  A
O87         Zr92   2.465       .  S
O87         C102   1.297       .  A
O88         Zr91   2.440       .  S
O88         C101   1.294       .  A
O89         Zr95   2.437   1_565  S
O89          C98   1.293       .  A
O90         Zr95   2.434       .  S
O90          C99   1.292       .  A
Zr91         O97   2.344   1_565  S
Zr91        O109   2.348       .  S
Zr92         O96   2.338       .  S
Zr92        O107   2.350       .  S
Zr93         O97   2.340       .  S
Zr93        O107   2.349       .  S
Zr94         O96   2.335   1_565  S
Zr94        O109   2.341       .  S
Zr95         O96   2.344       .  S
Zr95         O97   2.351       .  S
Zr95        O109   2.331   1_545  S
Zr95        O107   2.334       .  S
C98        C2195   1.469       .  S
C99        C2163   1.472       .  S
C100       C2009   1.500       .  S
C101       C2129   1.483       .  S
C102       C2031   1.491       .  S
C103       C2119   1.472       .  S
C104       C2229   1.470       .  S
C105       C2185   1.466       .  S
H106        O107   0.965       .  S
H108        O109   0.965       .  S
C110       C1953   1.552       .  S
C110       C1975   1.563   1_556  S
C110       C2207   1.552   1_556  S
C110       C2503   1.561       .  S
C111       C1909   1.554   1_554  S
C111       C1931   1.548   1_554  S
C111       C2173   1.556       .  S
C111       C2537   1.559   1_554  S
C112       C1865   1.561       .  S
C112       C1899   1.563       .  S
C112       C2075   1.555       .  S
C112       C2393   1.567       .  S
C113       C1833   1.554       .  S
C113       C1843   1.556       .  S
C113       C2217   1.561   1_556  S
C113       C2493   1.551       .  S
C114       C1777   1.551       .  S
C114       C1799   1.562       .  S
C114       C2151   1.560   1_556  S
C114       C2559   1.558       .  S
C115       C1733   1.561       .  S
C115       C1755   1.561       .  S
C115       C2097   1.567       .  S
C115       C2349   1.556       .  S
C116       C1689   1.548       .  S
C116       C1723   1.554       .  S
C116       C2053   1.559       .  S
C116       C2415   1.550       .  S
O117       Zr153   2.462       .  S
O117        C128   1.297       .  A
O118       Zr152   2.447       .  S
O118        C129   1.294   1_455  A
O119       Zr125   2.446       .  S
O119        C130   1.293       .  A
O120       Zr125   2.431       .  S
O120        C131   1.291       .  A
O121       Zr155   2.454       .  S
O121        C131   1.297       .  A
O122       Zr154   2.423       .  S
O122        C130   1.291       .  A
O123       Zr125   2.443       .  S
O123        C129   1.293       .  A
O124       Zr125   2.443       .  S
O124        C128   1.294       .  A
Zr125       O126   2.342       .  S
Zr125       O127   2.348       .  S
Zr125       O135   2.346       .  S
Zr125       O133   2.341       .  S
O126       Zr152   2.344   1_655  S
O126       Zr155   2.357       .  S
O127       Zr153   2.341       .  S
O127       Zr154   2.351       .  S
C128       C1877   1.491       .  S
C129       C1503   1.484       .  S
C130       C1557   1.467       .  S
C131       C1645   1.488       .  S
H132        O133   0.965       .  S
O133       Zr152   2.331   1_655  S
O133       Zr154   2.341       .  S
H134        O135   0.965       .  S
O135       Zr153   2.343       .  S
O135       Zr155   2.340       .  S
O136       Zr152   2.445       .  S
O136        C159   1.294       .  A
O137       Zr153   2.455       .  S
O137        C160   1.296       .  A
O138       Zr154   2.438   1_455  S
O138        C161   1.293       .  A
O139       Zr155   2.466   1_455  S
O139        C162   1.297       .  A
O140       Zr155   2.457       .  S
O140        C163   1.297       .  A
O141       Zr154   2.462       .  S
O141        C164   1.296       .  A
O142       Zr156   2.435       .  S
O142        C165   1.291       .  A
O143       Zr156   2.436       .  S
O143        C166   1.292       .  A
O144       Zr154   2.448   1_455  S
O144        C165   1.294       .  A
O145       Zr155   2.470   1_455  S
O145        C166   1.299       .  A
O146       Zr152   2.442       .  S
O146        C161   1.293       .  A
O147       Zr153   2.433       .  S
O147        C164   1.291       .  A
O148       Zr153   2.424       .  S
O148        C163   1.290       .  A
O149       Zr152   2.408       .  S
O149        C162   1.287       .  A
O150       Zr156   2.427       .  S
O150        C159   1.290       .  A
O151       Zr156   2.415       .  S
O151        C160   1.289   1_455  A
Zr152       O158   2.334       .  S
Zr152       O170   2.349       .  S
Zr153       O157   2.345       .  S
Zr153       O168   2.343       .  S
Zr154       O158   2.343   1_655  S
Zr154       O168   2.318       .  S
Zr155       O157   2.343       .  S
Zr155       O170   2.333   1_655  S
Zr156       O157   2.337   1_455  S
Zr156       O158   2.334       .  S
Zr156       O170   2.333       .  S
Zr156       O168   2.346   1_455  S
C159       C1701   1.475       .  S
C160       C1481   1.474       .  S
C161       C1535   1.479       .  S
C162       C1679   1.464       .  S
C163       C1623   1.486       .  S
C164       C1579   1.480       .  S
C165       C1513   1.472       .  S
C166       C1601   1.497       .  S
H167        O168   0.965       .  S
H169        O170   0.965       .  S
O171       Zr207   2.441       .  S
O171        C182   1.292       .  A
O172       Zr206   2.446       .  S
O172        C183   1.294   1_455  A
O173       Zr179   2.413       .  S
O173        C184   1.287       .  A
O174       Zr179   2.420       .  S
O174        C185   1.288       .  A
O175       Zr209   2.449       .  S
O175        C185   1.293       .  A
O176       Zr208   2.477       .  S
O176        C184   1.299       .  A
O177       Zr179   2.435       .  S
O177        C183   1.292       .  A
O178       Zr179   2.447       .  S
O178        C182   1.294       .  A
Zr179       O180   2.336       .  S
Zr179       O181   2.336       .  S
Zr179       O189   2.335       .  S
Zr179       O187   2.344       .  S
O180       Zr206   2.341   1_655  S
O180       Zr209   2.324       .  S
O181       Zr207   2.342       .  S
O181       Zr208   2.335       .  S
C182       C2251   1.476       .  S
C183       C1271   1.485       .  S
C184       C1415   1.471       .  S
C185       C1315   1.464       .  S
H186        O187   0.966       .  S
O187       Zr206   2.349   1_655  S
O187       Zr208   2.351       .  S
H188        O189   0.966       .  S
O189       Zr207   2.344       .  S
O189       Zr209   2.347       .  S
O190       Zr206   2.449       .  S
O190        C213   1.294       .  A
O191       Zr207   2.440       .  S
O191        C214   1.292       .  A
O192       Zr208   2.437   1_455  S
O192        C215   1.294       .  A
O193       Zr209   2.455   1_455  S
O193        C216   1.295       .  A
O194       Zr209   2.445       .  S
O194        C217   1.294       .  A
O195       Zr208   2.453       .  S
O195        C218   1.295       .  A
O196       Zr210   2.449       .  S
O196        C219   1.295       .  A
O197       Zr210   2.440       .  S
O197        C220   1.293       .  A
O198       Zr208   2.455   1_455  S
O198        C219   1.296       .  A
O199       Zr209   2.417   1_455  S
O199        C220   1.289       .  A
O200       Zr206   2.434       .  S
O200        C215   1.292       .  A
O201       Zr207   2.426       .  S
O201        C218   1.289       .  A
O202       Zr207   2.437       .  S
O202        C217   1.292       .  A
O203       Zr206   2.440       .  S
O203        C216   1.292       .  A
O204       Zr210   2.452       .  S
O204        C213   1.296       .  A
O205       Zr210   2.459       .  S
O205        C214   1.296   1_455  A
Zr206       O212   2.342       .  S
Zr206       O224   2.341       .  S
Zr207       O211   2.329       .  S
Zr207       O222   2.336       .  S
Zr208       O212   2.345   1_655  S
Zr208       O222   2.354       .  S
Zr209       O211   2.342       .  S
Zr209       O224   2.358   1_655  S
Zr210       O211   2.337   1_455  S
Zr210       O212   2.341       .  S
Zr210       O224   2.351       .  S
Zr210       O222   2.334   1_455  S
C213       C1745   1.493       .  S
C214       C1249   1.491       .  S
C215       C1381   1.482       .  S
C216       C1337   1.476       .  S
C217       C1293   1.474       .  S
C218       C1425   1.465       .  S
C219       C1459   1.485       .  S
C220       C1359   1.462       .  S
H221        O222   0.965       .  S
H223        O224   0.966       .  S
C225       C1205   1.552       .  S
C225       C1227   1.560       .  S
C225       C1327   1.554       .  S
C225       C1569   1.550       .  S
C226       C1173   1.565       .  S
C226       C1183   1.562       .  S
C226       C1349   1.562       .  S
C226       C1547   1.557       .  S
C227       C1151   1.559       .  S
C227       C1437   1.556       .  S
C227       C1635   1.562   1_545  S
C227       C2019   1.560       .  S
C228       C1117   1.560   1_545  S
C228       C1403   1.558       .  S
C228       C1657   1.565   1_545  S
C228       C2339   1.558       .  S
C229       C1073   1.550       .  S
C229       C1095   1.567       .  S
C229       C1305   1.556       .  S
C229       C1591   1.562       .  S
C230       C1041   1.549       .  S
C230       C1051   1.553       .  S
C230       C1371   1.547       .  S
C230       C1525   1.563       .  S
C231       C1019   1.563       .  S
C231       C1447   1.563       .  S
C231       C1613   1.574   1_545  S
C231       C1997   1.572       .  S
C232        C997   1.555       .  S
C232       C1393   1.554       .  S
C232       C1667   1.548   1_545  S
C232       C2305   1.551       .  S
O233       Zr269   2.441       .  S
O233        C244   1.293       .  A
O234       Zr268   2.421       .  S
O234        C245   1.289       .  A
O235       Zr241   2.430       .  S
O235        C246   1.290       .  A
O236       Zr241   2.419       .  S
O236        C247   1.289       .  A
O237       Zr271   2.457   1_554  S
O237        C247   1.295       .  A
O238       Zr270   2.445   1_554  S
O238        C246   1.294       .  A
O239       Zr241   2.436       .  S
O239        C245   1.292       .  A
O240       Zr241   2.447       .  S
O240        C244   1.294   1_554  A
Zr241       O242   2.342       .  S
Zr241       O243   2.327   1_554  S
Zr241       O251   2.338   1_554  S
Zr241       O249   2.340       .  S
O242       Zr268   2.330       .  S
O242       Zr271   2.331   1_554  S
O243       Zr269   2.340       .  S
O243       Zr270   2.346       .  S
C244       C1921   1.489       .  S
C245       C1085   1.472       .  S
C246        C831   1.469       .  S
C247        C963   1.468       .  S
H248        O249   0.966       .  S
O249       Zr268   2.343       .  S
O249       Zr270   2.349   1_554  S
H250        O251   0.966       .  S
O251       Zr269   2.335       .  S
O251       Zr271   2.355       .  S
O252       Zr268   2.431       .  S
O252        C275   1.291   1_554  A
O253       Zr269   2.435       .  S
O253        C276   1.292       .  A
O254       Zr270   2.470   1_554  S
O254        C277   1.298       .  A
O255       Zr271   2.448   1_554  S
O255        C278   1.295       .  A
O256       Zr271   2.441       .  S
O256        C279   1.293       .  A
O257       Zr270   2.444       .  S
O257        C280   1.293       .  A
O258       Zr272   2.456       .  S
O258        C281   1.294       .  A
O259       Zr272   2.431       .  S
O259        C282   1.291       .  A
O260       Zr270   2.467       .  S
O260        C281   1.297       .  A
O261       Zr271   2.452       .  S
O261        C282   1.295       .  A
O262       Zr268   2.407       .  S
O262        C277   1.286       .  A
O263       Zr269   2.433       .  S
O263        C280   1.292       .  A
O264       Zr269   2.461       .  S
O264        C279   1.296       .  A
O265       Zr268   2.443       .  S
O265        C278   1.293       .  A
O266       Zr272   2.442       .  S
O266        C275   1.293       .  A
O267       Zr272   2.428       .  S
O267        C276   1.291       .  A
Zr268       O274   2.343   1_554  S
Zr268       O286   2.326   1_554  S
Zr269       O273   2.337       .  S
Zr269       O284   2.350       .  S
Zr270       O274   2.334       .  S
Zr270       O284   2.355       .  S
Zr271       O273   2.344       .  S
Zr271       O286   2.350       .  S
Zr272       O273   2.349       .  S
Zr272       O274   2.335       .  S
Zr272       O286   2.348       .  S
Zr272       O284   2.334       .  S
C275       C1789   1.480       .  S
C276       C1217   1.480       .  S
C277        C809   1.468       .  S
C278        C897   1.491       .  S
C279        C941   1.483       .  S
C280        C853   1.462       .  S
C281        C887   1.488       .  S
C282        C919   1.465       .  S
H283        O284   0.965       .  S
H285        O286   0.965       .  S
O287       Zr323   2.423       .  S
O287        C298   1.290   1_556  A
O288       Zr322   2.453       .  S
O288        C299   1.295       .  A
O289       Zr295   2.423       .  S
O289        C300   1.290       .  A
O290       Zr295   2.432       .  S
O290        C301   1.290       .  A
O291       Zr325   2.450       .  S
O291        C301   1.293       .  A
O292       Zr324   2.445       .  S
O292        C300   1.295       .  A
O293       Zr295   2.445       .  S
O293        C299   1.295       .  A
O294       Zr295   2.463       .  S
O294        C298   1.298       .  A
Zr295       O296   2.337       .  S
Zr295       O297   2.338       .  S
Zr295       O305   2.338       .  S
Zr295       O303   2.350       .  S
O296       Zr322   2.347       .  S
O296       Zr325   2.337       .  S
O297       Zr323   2.345   1_554  S
O297       Zr324   2.339       .  S
C298       C1965   1.484       .  S
C299       C1029   1.492       .  S
C300        C689   1.483       .  S
C301        C765   1.470       .  S
H302        O303   0.968       .  S
O303       Zr322   2.345       .  S
O303       Zr324   2.327       .  S
H304        O305   0.966       .  S
O305       Zr323   2.348   1_554  S
O305       Zr325   2.325       .  S
O306       Zr322   2.447       .  S
O306        C329   1.295   1_554  A
O307       Zr323   2.458       .  S
O307        C330   1.296       .  A
O308       Zr324   2.457       .  S
O308        C331   1.295       .  A
O309       Zr325   2.440       .  S
O309        C332   1.294       .  A
O310       Zr325   2.433   1_556  S
O310        C333   1.292       .  A
O311       Zr324   2.441   1_556  S
O311        C334   1.292       .  A
O312       Zr326   2.436       .  S
O312        C335   1.291       .  A
O313       Zr326   2.453       .  S
O313        C336   1.295       .  A
O314       Zr324   2.413   1_556  S
O314        C335   1.289       .  A
O315       Zr325   2.424   1_556  S
O315        C336   1.290       .  A
O316       Zr322   2.446       .  S
O316        C331   1.292       .  A
O317       Zr323   2.434       .  S
O317        C334   1.291       .  A
O318       Zr323   2.438       .  S
O318        C333   1.292       .  A
O319       Zr322   2.424       .  S
O319        C332   1.290       .  A
O320       Zr326   2.440       .  S
O320        C329   1.293       .  A
O321       Zr326   2.458       .  S
O321        C330   1.296       .  A
Zr322       O328   2.335       .  S
Zr322       O340   2.346       .  S
Zr323       O327   2.338       .  S
Zr323       O338   2.335       .  S
Zr324       O328   2.342       .  S
Zr324       O338   2.346   1_554  S
Zr325       O327   2.351   1_554  S
Zr325       O340   2.337       .  S
Zr326       O327   2.340       .  S
Zr326       O328   2.350   1_556  S
Zr326       O340   2.345   1_556  S
Zr326       O338   2.343       .  S
C329       C1821   1.486       .  S
C330       C1161   1.497       .  S
C331        C655   1.479       .  S
C332        C787   1.481       .  S
C333        C755   1.471       .  S
C334        C711   1.468       .  S
C335        C633   1.460       .  S
C336        C721   1.474       .  S
H337        O338   0.967       .  S
H339        O340   0.971   1_556  S
C341        C611   1.560       .  S
C341        C699   1.557       .  S
C341        C953   1.566   1_455  S
C341       C1491   1.555   1_455  S
C342        C589   1.549       .  S
C342        C645   1.545   1_655  S
C342        C931   1.556       .  S
C342       C1283   1.548       .  S
C343        C567   1.556       .  S
C343        C743   1.556       .  S
C343        C865   1.557       .  S
C343       C2471   1.556       .  S
C344        C545   1.559       .  S
C344        C777   1.556       .  S
C344        C843   1.551       .  S
C344       C2141   1.554       .  S
C345        C523   1.562       .  S
C345        C667   1.565   1_655  S
C345        C909   1.568       .  S
C345       C1261   1.560       .  S
C346        C513   1.550       .  S
C346        C677   1.556   1_655  S
C346        C975   1.553       .  S
C346       C1469   1.550       .  S
C347        C491   1.560       .  S
C347        C733   1.555       .  S
C347        C875   1.567       .  S
C347       C2449   1.564       .  S
C348        C457   1.552       .  S
C348        C799   1.553       .  S
C348        C821   1.549       .  S
C348       C2107   1.549       .  S
O349       Zr385   2.464       .  S
O349        C360   1.295       .  A
O350       Zr384   2.462       .  S
O350        C361   1.295       .  A
O351       Zr357   2.475       .  S
O351        C362   1.298       .  A
O352       Zr357   2.479       .  S
O352        C363   1.300       .  A
O353       Zr387   2.416       .  S
O353        C363   1.288       .  A
O354       Zr386   2.415       .  S
O354        C362   1.289       .  A
O355       Zr357   2.408       .  S
O355        C361   1.287       .  A
O356       Zr357   2.408       .  S
O356        C360   1.287       .  A
Zr357       O358   2.339       .  S
Zr357       O359   2.340       .  S
Zr357       O367   2.342       .  S
Zr357       O365   2.342       .  S
O358       Zr384   2.335       .  S
O358       Zr387   2.344       .  S
O359       Zr385   2.331       .  S
O359       Zr386   2.341       .  S
C360       C2295   1.473       .  S
C361        C469   1.469       .  S
C362       C1767   1.478       .  S
C363       C1107   1.479       .  S
H364        O365   0.965       .  S
O365       Zr384   2.334       .  S
O365       Zr386   2.339       .  S
H366        O367   0.966       .  S
O367       Zr385   2.341       .  S
O367       Zr387   2.347       .  S
O368       Zr384   2.460       .  S
O368        C391   1.294       .  A
O369       Zr385   2.458       .  S
O369        C392   1.294       .  A
O370       Zr386   2.478       .  S
O370        C393   1.299       .  A
O371       Zr387   2.480       .  S
O371        C394   1.298       .  A
O372       Zr387   2.480       .  S
O372        C395   1.299       .  A
O373       Zr386   2.493       .  S
O373        C396   1.301       .  A
O374       Zr388   2.492       .  S
O374        C397   1.301       .  A
O375       Zr388   2.479       .  S
O375        C398   1.299       .  A
O376       Zr386   2.404       .  S
O376        C397   1.287       .  A
O377       Zr387   2.420       .  S
O377        C398   1.290       .  A
O378       Zr384   2.387       .  S
O378        C393   1.284       .  A
O379       Zr385   2.397       .  S
O379        C396   1.285       .  A
O380       Zr385   2.396       .  S
O380        C395   1.286       .  A
O381       Zr384   2.385       .  S
O381        C394   1.283       .  A
O382       Zr388   2.414       .  S
O382        C391   1.288       .  A
O383       Zr388   2.412       .  S
O383        C392   1.287       .  A
Zr384       O390   2.340       .  S
Zr384       O402   2.333       .  S
Zr385       O389   2.338       .  S
Zr385       O400   2.339       .  S
Zr386       O390   2.352       .  S
Zr386       O400   2.340       .  S
Zr387       O389   2.347       .  S
Zr387       O402   2.336       .  S
Zr388       O389   2.348       .  S
Zr388       O390   2.343       .  S
Zr388       O402   2.342       .  S
Zr388       O400   2.348       .  S
C391       C1711   1.466       .  S
C392        C579   1.461       .  S
C393       C1063   1.481       .  S
C394        C557   1.468       .  S
C395       C1239   1.489       .  S
C396        C479   1.486       .  S
C397       C1195   1.480       .  S
C398       C1887   1.484       .  S
H399        O400   0.965       .  S
H401        O402   0.965       .  S
O403       Zr439   2.495       .  S
O403        C414   1.302       .  A
O404       Zr438   2.469   1_455  S
O404        C415   1.297       .  A
O405       Zr411   2.483       .  S
O405        C416   1.298       .  A
O406       Zr411   2.471   1_545  S
O406        C417   1.298       .  A
O407       Zr441   2.386   1_556  S
O407        C417   1.284       .  A
O408       Zr440   2.394       .  S
O408        C416   1.286   1_655  A
O409       Zr411   2.416   1_545  S
O409        C415   1.290       .  A
O410       Zr411   2.396       .  S
O410        C414   1.285   1_556  A
Zr411       O412   2.344   1_565  S
Zr411       O413   2.335       .  S
Zr411       O421   2.347   1_566  S
Zr411       O419   2.336   1_455  S
O412       Zr438   2.348   1_455  S
O412       Zr441   2.345   1_556  S
O413       Zr439   2.333   1_556  S
O413       Zr440   2.338   1_455  S
C414       C1987   1.487       .  S
C415        C985   1.477       .  S
C416        C623   1.480       .  S
C417       C1855   1.474       .  S
H418        O419   0.965       .  S
O419       Zr438   2.342   1_565  S
O419       Zr440   2.336       .  S
H420        O421   0.965       .  S
O421       Zr439   2.335   1_545  S
O421       Zr441   2.345       .  S
O422       Zr438   2.489       .  S
O422        C445   1.300       .  A
O423       Zr439   2.475   1_655  S
O423        C446   1.298       .  A
O424       Zr440   2.482       .  S
O424        C447   1.299       .  A
O425       Zr441   2.458   1_556  S
O425        C448   1.296       .  A
O426       Zr441   2.470       .  S
O426        C449   1.297       .  A
O427       Zr440   2.465   1_554  S
O427        C450   1.297       .  A
O428       Zr442   2.430   1_565  S
O428        C451   1.289       .  A
O429       Zr442   2.474       .  S
O429        C452   1.297       .  A
O430       Zr440   2.415       .  S
O430        C451   1.288   1_556  A
O431       Zr441   2.403   1_655  S
O431        C452   1.285       .  A
O432       Zr438   2.400       .  S
O432        C447   1.285   1_545  A
O433       Zr439   2.398   1_655  S
O433        C450   1.286       .  A
O434       Zr439   2.398   1_545  S
O434        C449   1.285       .  A
O435       Zr438   2.396       .  S
O435        C448   1.286   1_655  A
O436       Zr442   2.391       .  S
O436        C445   1.285   1_554  A
O437       Zr442   2.414       .  S
O437        C446   1.289   1_545  A
Zr438       O444   2.335       .  S
Zr438       O456   2.340       .  S
Zr439       O443   2.346   1_465  S
Zr439       O454   2.343   1_455  S
Zr440       O444   2.332   1_565  S
Zr440       O454   2.343   1_556  S
Zr441       O443   2.331   1_455  S
Zr441       O456   2.333   1_454  S
Zr442       O443   2.325       .  S
Zr442       O444   2.349   1_554  S
Zr442       O456   2.326   1_554  S
Zr442       O454   2.339   1_545  S
C445       C1811   1.483       .  S
C446       C1139   1.481       .  S
C447       C1129   1.470       .  S
C448        C601   1.474       .  S
C449       C1007   1.463       .  S
C450        C501   1.475       .  S
C451       C1943   1.449       .  S
C452        C535   1.471       .  S
H453        O454   0.965       .  S
H455        O456   0.965       .  S
C457        C458   1.410       .  A
C457        C462   1.410       .  A
C458        C459   1.396       .  A
C458        H471   1.083       .  S
C459        C460   1.411       .  A
C459        H472   1.077       .  S
C460        C466   1.429       .  A
C460        C461   1.421       .  A
C461        C463   1.399       .  A
C461        C462   1.402       .  A
C462        H473   1.081       .  S
C463        C464   1.387       .  A
C463        H474   1.084       .  S
C464        C465   1.398       .  A
C464        H475   1.084       .  S
C465        C466   1.421       .  A
C465        C470   1.399       .  A
C466        C467   1.419       .  A
C467        C468   1.400       .  A
C467        H476   1.077       .  S
C468        C469   1.396       .  A
C468        H477   1.083       .  S
C469        C470   1.399       .  A
C470        H478   1.086       .  S
C479        C480   1.399       .  A
C479        C484   1.406       .  A
C480        C481   1.407       .  A
C480        H493   1.083       .  S
C481        C482   1.422       .  A
C481        H494   1.078       .  S
C482        C488   1.435       .  A
C482        C483   1.419       .  A
C483        C485   1.401       .  A
C483        C484   1.402       .  A
C484        H495   1.085       .  S
C485        C486   1.390       .  A
C485        H496   1.084       .  S
C486        C487   1.398       .  A
C486        H497   1.084       .  S
C487        C488   1.424       .  A
C487        C492   1.410       .  A
C488        C489   1.408       .  A
C489        C490   1.397       .  A
C489        H498   1.078       .  S
C490        C491   1.417       .  A
C490        H499   1.080       .  S
C491        C492   1.408       .  A
C492        H500   1.084       .  S
C501        C502   1.397       .  A
C501        C506   1.403       .  A
C502        C503   1.399       .  A
C502        H515   1.082       .  S
C503        C504   1.419       .  A
C503        H516   1.077       .  S
C504        C510   1.427       .  A
C504        C505   1.419       .  A
C505        C507   1.399       .  A
C505        C506   1.396       .  A
C506        H517   1.085       .  S
C507        C508   1.387   1_655  A
C507        H518   1.084       .  S
C508        C509   1.399   1_455  A
C508        H519   1.084       .  S
C509        C510   1.422       .  A
C509        C514   1.403   1_655  A
C510        C511   1.409       .  A
C511        C512   1.392       .  A
C511        H520   1.077       .  S
C512        C513   1.409       .  A
C512        H521   1.082       .  S
C513        C514   1.409   1_655  A
C514        H522   1.081       .  S
C523        C524   1.409       .  A
C523        C528   1.417       .  A
C524        C525   1.398       .  A
C524        H537   1.083       .  S
C525        C526   1.414       .  A
C525        H538   1.077       .  S
C526        C532   1.431       .  A
C526        C527   1.417       .  A
C527        C529   1.402       .  A
C527        C528   1.404       .  A
C528        H539   1.079       .  S
C529        C530   1.390       .  A
C529        H540   1.084       .  S
C530        C531   1.398       .  A
C530        H541   1.084       .  S
C531        C532   1.426       .  A
C531        C536   1.410       .  A
C532        C533   1.412       .  A
C533        C534   1.393       .  A
C533        H542   1.077       .  S
C534        C535   1.400       .  A
C534        H543   1.084       .  S
C535        C536   1.398       .  A
C536        H544   1.085       .  S
C545        C546   1.408       .  A
C545        C550   1.416       .  A
C546        C547   1.397       .  A
C546        H559   1.083       .  S
C547        C548   1.414       .  A
C547        H560   1.078       .  S
C548        C554   1.428       .  A
C548        C549   1.416       .  A
C549        C551   1.402       .  A
C549        C550   1.402       .  A
C550        H561   1.079       .  S
C551        C552   1.391       .  A
C551        H562   1.084       .  S
C552        C553   1.398       .  A
C552        H563   1.084       .  S
C553        C554   1.425       .  A
C553        C558   1.409       .  A
C554        C555   1.410       .  A
C555        C556   1.392       .  A
C555        H564   1.078       .  S
C556        C557   1.401       .  A
C556        H565   1.084       .  S
C557        C558   1.398       .  A
C558        H566   1.085       .  S
C567        C568   1.411       .  A
C567        C572   1.412       .  A
C568        C569   1.396       .  A
C568        H581   1.080       .  S
C569        C570   1.410       .  A
C569        H582   1.079       .  S
C570        C576   1.426       .  A
C570        C571   1.418       .  A
C571        C573   1.400       .  A
C571        C572   1.404       .  A
C572        H583   1.084       .  S
C573        C574   1.391       .  A
C573        H584   1.084       .  S
C574        C575   1.400       .  A
C574        H585   1.084       .  S
C575        C576   1.421       .  A
C575        C580   1.403       .  A
C576        C577   1.415       .  A
C577        C578   1.397       .  A
C577        H586   1.079       .  S
C578        C579   1.397       .  A
C578        H587   1.084       .  S
C579        C580   1.398       .  A
C580        H588   1.085       .  S
C589        C590   1.413   1_655  A
C589        C594   1.405       .  A
C590        C591   1.390       .  A
C590        H603   1.080       .  S
C591        C592   1.407       .  A
C591        H604   1.077       .  S
C592        C598   1.424       .  A
C592        C593   1.422   1_455  A
C593        C595   1.397       .  A
C593        C594   1.400       .  A
C594        H605   1.085       .  S
C595        C596   1.386       .  A
C595        H606   1.084       .  S
C596        C597   1.399       .  A
C596        H607   1.084       .  S
C597        C598   1.418   1_655  A
C597        C602   1.394       .  A
C598        C599   1.419       .  A
C599        C600   1.398       .  A
C599        H608   1.077       .  S
C600        C601   1.397       .  A
C600        H609   1.083       .  S
C601        C602   1.403   1_455  A
C602        H610   1.085       .  S
C611        C612   1.409   1_455  A
C611        C616   1.420       .  A
C612        C613   1.390       .  A
C612        H625   1.077       .  S
C613        C614   1.408   1_655  A
C613        H626   1.080       .  S
C614        C620   1.419       .  A
C614        C615   1.412       .  A
C615        C617   1.405       .  A
C615        C616   1.409       .  A
C616        H627   1.084       .  S
C617        C618   1.401       .  A
C617        H628   1.084       .  S
C618        C619   1.403       .  A
C618        H629   1.083       .  S
C619        C620   1.421       .  A
C619        C624   1.418       .  A
C620        C621   1.404       .  A
C621        C622   1.384       .  A
C621        H630   1.080   1_455  S
C622        C623   1.403       .  A
C622        H631   1.083       .  S
C623        C624   1.406       .  A
C624        H632   1.084       .  S
C633        C634   1.395       .  A
C633        C638   1.399       .  A
C634        C635   1.385       .  A
C634        H647   1.084       .  S
C635        C636   1.413       .  A
C635        H648   1.076       .  S
C636        C642   1.421       .  A
C636        C637   1.422       .  A
C637        C639   1.400       .  A
C637        C638   1.404       .  A
C638        H649   1.085       .  S
C639        C640   1.392       .  A
C639        H650   1.084       .  S
C640        C641   1.401       .  A
C640        H651   1.084       .  S
C641        C642   1.421       .  A
C641        C646   1.406       .  A
C642        C643   1.407       .  A
C643        C644   1.381       .  A
C643        H652   1.076       .  S
C644        C645   1.408       .  A
C644        H653   1.083   1_455  S
C645        C646   1.408       .  A
C646        H654   1.080       .  S
C655        C656   1.397       .  A
C655        C660   1.403       .  A
C656        C657   1.399       .  A
C656        H669   1.084       .  S
C657        C658   1.416       .  A
C657        H670   1.077       .  S
C658        C664   1.434       .  A
C658        C659   1.423       .  A
C659        C661   1.402       .  A
C659        C660   1.412       .  A
C660        H671   1.085       .  S
C661        C662   1.395       .  A
C661        H672   1.084       .  S
C662        C663   1.402       .  A
C662        H673   1.084       .  S
C663        C664   1.421       .  A
C663        C668   1.413       .  A
C664        C665   1.411       .  A
C665        C666   1.397       .  A
C665        H674   1.078       .  S
C666        C667   1.412       .  A
C666        H675   1.083       .  S
C667        C668   1.413       .  A
C668        H676   1.079       .  S
C677        C678   1.409       .  A
C677        C682   1.412       .  A
C678        C679   1.402       .  A
C678        H691   1.083       .  S
C679        C680   1.415       .  A
C679        H692   1.078       .  S
C680        C686   1.429       .  A
C680        C681   1.416       .  A
C681        C683   1.399       .  A
C681        C682   1.394       .  A
C682        H693   1.080   1_455  S
C683        C684   1.384       .  A
C683        H694   1.084       .  S
C684        C685   1.397       .  A
C684        H695   1.084       .  S
C685        C686   1.423       .  A
C685        C690   1.400       .  A
C686        C687   1.413       .  A
C687        C688   1.398       .  A
C687        H696   1.078       .  S
C688        C689   1.405       .  A
C688        H697   1.083       .  S
C689        C690   1.400       .  A
C690        H698   1.084       .  S
C699        C700   1.410       .  A
C699        C704   1.413       .  A
C700        C701   1.397       .  A
C700        H713   1.083       .  S
C701        C702   1.411       .  A
C701        H714   1.078       .  S
C702        C708   1.429       .  A
C702        C703   1.419       .  A
C703        C705   1.400       .  A
C703        C704   1.402       .  A
C704        H715   1.078       .  S
C705        C706   1.388       .  A
C705        H716   1.084       .  S
C706        C707   1.398       .  A
C706        H717   1.084       .  S
C707        C708   1.422       .  A
C707        C712   1.401       .  A
C708        C709   1.416       .  A
C709        C710   1.399       .  A
C709        H718   1.078       .  S
C710        C711   1.398       .  A
C710        H719   1.084       .  S
C711        C712   1.398       .  A
C712        H720   1.085       .  S
C721        C722   1.399       .  A
C721        C726   1.401       .  A
C722        C723   1.394       .  A
C722        H735   1.083       .  S
C723        C724   1.415       .  A
C723        H736   1.078       .  S
C724        C730   1.426       .  A
C724        C725   1.420       .  A
C725        C727   1.400       .  A
C725        C726   1.407       .  A
C726        H737   1.085       .  S
C727        C728   1.394       .  A
C727        H738   1.084       .  S
C728        C729   1.401       .  A
C728        H739   1.084       .  S
C729        C730   1.422       .  A
C729        C734   1.412       .  A
C730        C731   1.407       .  A
C731        C732   1.389       .  A
C731        H740   1.078       .  S
C732        C733   1.412       .  A
C732        H741   1.083       .  S
C733        C734   1.410       .  A
C734        H742   1.080       .  S
C743        C744   1.410       .  A
C743        C748   1.411       .  A
C744        C745   1.402       .  A
C744        H757   1.079       .  S
C745        C746   1.415       .  A
C745        H758   1.078       .  S
C746        C752   1.431       .  A
C746        C747   1.418       .  A
C747        C749   1.399       .  A
C747        C748   1.396       .  A
C748        H759   1.084       .  S
C749        C750   1.385       .  A
C749        H760   1.084       .  S
C750        C751   1.397       .  A
C750        H761   1.084       .  S
C751        C752   1.423       .  A
C751        C756   1.398       .  A
C752        C753   1.417       .  A
C753        C754   1.401       .  A
C753        H762   1.078       .  S
C754        C755   1.400       .  A
C754        H763   1.084       .  S
C755        C756   1.396       .  A
C756        H764   1.084       .  S
C765        C766   1.397       .  A
C765        C770   1.398       .  A
C766        C767   1.396       .  A
C766        H779   1.084       .  S
C767        C768   1.415       .  A
C767        H780   1.077       .  S
C768        C774   1.431       .  A
C768        C769   1.424       .  A
C769        C771   1.399       .  A
C769        C770   1.408       .  A
C770        H781   1.085       .  S
C771        C772   1.391       .  A
C771        H782   1.084       .  S
C772        C773   1.401       .  A
C772        H783   1.084       .  S
C773        C774   1.419       .  A
C773        C778   1.403       .  A
C774        C775   1.414       .  A
C775        C776   1.398       .  A
C775        H784   1.077       .  S
C776        C777   1.408       .  A
C776        H785   1.079       .  S
C777        C778   1.413       .  A
C778        H786   1.085       .  S
C787        C788   1.403       .  A
C787        C792   1.401       .  A
C788        C789   1.395       .  A
C788        H801   1.083       .  S
C789        C790   1.413       .  A
C789        H802   1.077       .  S
C790        C796   1.428       .  A
C790        C791   1.423       .  A
C791        C793   1.397       .  A
C791        C792   1.401       .  A
C792        H803   1.084       .  S
C793        C794   1.386       .  A
C793        H804   1.084       .  S
C794        C795   1.400       .  A
C794        H805   1.084       .  S
C795        C796   1.418       .  A
C795        C800   1.397       .  A
C796        C797   1.414       .  A
C797        C798   1.397       .  A
C797        H806   1.077       .  S
C798        C799   1.407       .  A
C798        H807   1.083       .  S
C799        C800   1.413       .  A
C800        H808   1.081       .  S
C809        C810   1.395       .  A
C809        C814   1.402       .  A
C810        C811   1.397       .  A
C810        H823   1.084       .  S
C811        C812   1.416       .  A
C811        H824   1.078       .  S
C812        C818   1.424       .  A
C812        C813   1.420       .  A
C813        C815   1.402       .  A
C813        C814   1.403       .  A
C814        H825   1.085       .  S
C815        C816   1.393       .  A
C815        H826   1.084       .  S
C816        C817   1.401       .  A
C816        H827   1.084       .  S
C817        C818   1.420       .  A
C817        C822   1.407       .  A
C818        C819   1.408       .  A
C819        C820   1.391       .  A
C819        H828   1.079       .  S
C820        C821   1.409       .  A
C820        H829   1.083       .  S
C821        C822   1.410       .  A
C822        H830   1.082       .  S
C831        C832   1.400       .  A
C831        C836   1.395       .  A
C832        C833   1.399       .  A
C832        H845   1.084       .  S
C833        C834   1.415       .  A
C833        H846   1.078       .  S
C834        C840   1.430       .  A
C834        C835   1.425       .  A
C835        C837   1.397       .  A
C835        C836   1.400       .  A
C836        H847   1.085       .  S
C837        C838   1.384       .  A
C837        H848   1.084       .  S
C838        C839   1.398       .  A
C838        H849   1.084       .  S
C839        C840   1.418       .  A
C839        C844   1.394       .  A
C840        C841   1.417       .  A
C841        C842   1.403       .  A
C841        H850   1.078       .  S
C842        C843   1.408       .  A
C842        H851   1.080       .  S
C843        C844   1.409       .  A
C844        H852   1.085       .  S
C853        C854   1.393       .  A
C853        C858   1.401       .  A
C854        C855   1.388       .  A
C854        H867   1.084       .  S
C855        C856   1.413       .  A
C855        H868   1.077       .  S
C856        C862   1.423       .  A
C856        C857   1.422       .  A
C857        C859   1.402       .  A
C857        C858   1.409       .  A
C858        H869   1.085       .  S
C859        C860   1.395       .  A
C859        H870   1.084       .  S
C860        C861   1.402       .  A
C860        H871   1.084       .  S
C861        C862   1.418       .  A
C861        C866   1.408       .  A
C862        C863   1.408       .  A
C863        C864   1.387       .  A
C863        H872   1.077       .  S
C864        C865   1.411       .  A
C864        H873   1.079       .  S
C865        C866   1.414       .  A
C866        H874   1.084       .  S
C875        C876   1.412       .  A
C875        C880   1.416       .  A
C876        C877   1.397       .  A
C876        H889   1.083       .  S
C877        C878   1.410       .  A
C877        H890   1.078       .  S
C878        C884   1.437       .  A
C878        C879   1.422       .  A
C879        C881   1.403       .  A
C879        C880   1.418       .  A
C880        H891   1.080       .  S
C881        C882   1.397       .  A
C881        H892   1.084       .  S
C882        C883   1.403       .  A
C882        H893   1.084       .  S
C883        C884   1.422       .  A
C883        C888   1.416       .  A
C884        C885   1.417       .  A
C885        C886   1.401       .  A
C885        H894   1.078       .  S
C886        C887   1.399       .  A
C886        H895   1.084       .  S
C887        C888   1.407       .  A
C888        H896   1.085       .  S
C897        C898   1.401       .  A
C897        C902   1.409       .  A
C898        C899   1.393       .  A
C898        H911   1.083       .  S
C899        C900   1.414       .  A
C899        H912   1.077       .  S
C900        C906   1.430       .  A
C900        C901   1.420       .  A
C901        C903   1.403       .  A
C901        C902   1.412       .  A
C902        H913   1.084       .  S
C903        C904   1.397       .  A
C903        H914   1.084       .  S
C904        C905   1.402       .  A
C904        H915   1.084       .  S
C905        C906   1.420       .  A
C905        C910   1.415       .  A
C906        C907   1.405       .  A
C907        C908   1.388       .  A
C907        H916   1.077       .  S
C908        C909   1.416       .  A
C908        H917   1.077       .  S
C909        C910   1.415       .  A
C910        H918   1.084       .  S
C919        C920   1.397       .  A
C919        C924   1.396       .  A
C920        C921   1.395       .  A
C920        H933   1.084       .  S
C921        C922   1.416       .  A
C921        H934   1.077       .  S
C922        C928   1.429       .  A
C922        C923   1.424       .  A
C923        C925   1.398       .  A
C923        C924   1.405       .  A
C924        H935   1.085       .  S
C925        C926   1.390       .  A
C925        H936   1.084       .  S
C926        C927   1.399       .  A
C926        H937   1.084       .  S
C927        C928   1.420       .  A
C927        C932   1.404       .  A
C928        C929   1.411       .  A
C929        C930   1.394       .  A
C929        H938   1.077       .  S
C930        C931   1.412       .  A
C930        H939   1.078       .  S
C931        C932   1.410       .  A
C932        H940   1.085       .  S
C941        C942   1.400       .  A
C941        C946   1.402       .  A
C942        C943   1.397       .  A
C942        H955   1.084       .  S
C943        C944   1.416       .  A
C943        H956   1.077       .  S
C944        C950   1.434       .  A
C944        C945   1.423       .  A
C945        C947   1.400       .  A
C945        C946   1.412       .  A
C946        H957   1.084       .  S
C947        C948   1.394       .  A
C947        H958   1.084       .  S
C948        C949   1.402       .  A
C948        H959   1.084       .  S
C949        C950   1.421       .  A
C949        C954   1.413       .  A
C950        C951   1.410       .  A
C951        C952   1.394       .  A
C951        H960   1.077       .  S
C952        C953   1.412       .  A
C952        H961   1.083       .  S
C953        C954   1.414       .  A
C954        H962   1.080       .  S
C963        C964   1.397       .  A
C963        C968   1.400       .  A
C964        C965   1.390       .  A
C964        H977   1.084       .  S
C965        C966   1.413       .  A
C965        H978   1.076       .  S
C966        C972   1.426       .  A
C966        C967   1.424       .  A
C967        C969   1.401       .  A
C967        C968   1.409       .  A
C968        H979   1.085       .  S
C969        C970   1.393       .  A
C969        H980   1.084       .  S
C970        C971   1.400       .  A
C970        H981   1.084       .  S
C971        C972   1.420       .  A
C971        C976   1.405       .  A
C972        C973   1.411       .  A
C973        C974   1.390       .  A
C973        H982   1.077       .  S
C974        C975   1.407       .  A
C974        H983   1.081       .  S
C975        C976   1.410       .  A
C976        H984   1.085       .  S
C985        C986   1.400       .  A
C985        C990   1.397       .  A
C986        C987   1.407       .  A
C986        H999   1.081   1_455  S
C987        C988   1.420       .  A
C987       H1000   1.079       .  S
C988        C994   1.434       .  A
C988        C989   1.422       .  A
C989        C991   1.396       .  A
C989        C990   1.397       .  A
C990       H1001   1.086       .  S
C991        C992   1.383       .  A
C991       H1002   1.084       .  S
C992        C993   1.397       .  A
C992       H1003   1.084       .  S
C993        C994   1.422       .  A
C993        C998   1.399       .  A
C994        C995   1.413       .  A
C995        C996   1.402       .  A
C995       H1004   1.078       .  S
C996        C997   1.413       .  A
C996       H1005   1.083   1_545  S
C997        C998   1.407       .  A
C998       H1006   1.081       .  S
C1007      C1008   1.396       .  A
C1007      C1012   1.401       .  A
C1008      C1009   1.398       .  A
C1008      H1021   1.084       .  S
C1009      C1010   1.417       .  A
C1009      H1022   1.078       .  S
C1010      C1016   1.430       .  A
C1010      C1011   1.421       .  A
C1011      C1013   1.400       .  A
C1011      C1012   1.405       .  A
C1012      H1023   1.085       .  S
C1013      C1014   1.392       .  A
C1013      H1024   1.084       .  S
C1014      C1015   1.401       .  A
C1014      H1025   1.084       .  S
C1015      C1016   1.420       .  A
C1015      C1020   1.409       .  A
C1016      C1017   1.409       .  A
C1017      C1018   1.395       .  A
C1017      H1026   1.078       .  S
C1018      C1019   1.414       .  A
C1018      H1027   1.080       .  S
C1019      C1020   1.412       .  A
C1020      H1028   1.082       .  S
C1029      C1030   1.403       .  A
C1029      C1034   1.409       .  A
C1030      C1031   1.392       .  A
C1030      H1043   1.083       .  S
C1031      C1032   1.411       .  A
C1031      H1044   1.078       .  S
C1032      C1038   1.428       .  A
C1032      C1033   1.421       .  A
C1033      C1035   1.402       .  A
C1033      C1034   1.413       .  A
C1034      H1045   1.084       .  S
C1035      C1036   1.396       .  A
C1035      H1046   1.084       .  S
C1036      C1037   1.402       .  A
C1036      H1047   1.084       .  S
C1037      C1038   1.417       .  A
C1037      C1042   1.408       .  A
C1038      C1039   1.411       .  A
C1039      C1040   1.393       .  A
C1039      H1048   1.078       .  S
C1040      C1041   1.409       .  A
C1040      H1049   1.080       .  S
C1041      C1042   1.414       .  A
C1042      H1050   1.084       .  S
C1051      C1052   1.414       .  A
C1051      C1056   1.406       .  A
C1052      C1053   1.393       .  A
C1052      H1065   1.081       .  S
C1053      C1054   1.407       .  A
C1053      H1066   1.078       .  S
C1054      C1060   1.427       .  A
C1054      C1055   1.422       .  A
C1055      C1057   1.397       .  A
C1055      C1056   1.403       .  A
C1056      H1067   1.084       .  S
C1057      C1058   1.387       .  A
C1057      H1068   1.084       .  S
C1058      C1059   1.401       .  A
C1058      H1069   1.084       .  S
C1059      C1060   1.418       .  A
C1059      C1064   1.396       .  A
C1060      C1061   1.420       .  A
C1061      C1062   1.401       .  A
C1061      H1070   1.077       .  S
C1062      C1063   1.398       .  A
C1062      H1071   1.083       .  S
C1063      C1064   1.407       .  A
C1064      H1072   1.085       .  S
C1073      C1074   1.408       .  A
C1073      C1078   1.412       .  A
C1074      C1075   1.392       .  A
C1074      H1087   1.083       .  S
C1075      C1076   1.411       .  A
C1075      H1088   1.077       .  S
C1076      C1082   1.427       .  A
C1076      C1077   1.419       .  A
C1077      C1079   1.401       .  A
C1077      C1078   1.405       .  A
C1078      H1089   1.080       .  S
C1079      C1080   1.390       .  A
C1079      H1090   1.084       .  S
C1080      C1081   1.399       .  A
C1080      H1091   1.084       .  S
C1081      C1082   1.422       .  A
C1081      C1086   1.403       .  A
C1082      C1083   1.414       .  A
C1083      C1084   1.392       .  A
C1083      H1092   1.077       .  S
C1084      C1085   1.399       .  A
C1084      H1093   1.084       .  S
C1085      C1086   1.400       .  A
C1086      H1094   1.085       .  S
C1095      C1096   1.415       .  A
C1095      C1100   1.414       .  A
C1096      C1097   1.392       .  A
C1096      H1109   1.079       .  S
C1097      C1098   1.407       .  A
C1097      H1110   1.077       .  S
C1098      C1104   1.433       .  A
C1098      C1099   1.421       .  A
C1099      C1101   1.401       .  A
C1099      C1100   1.414       .  A
C1100      H1111   1.084       .  S
C1101      C1102   1.395       .  A
C1101      H1112   1.084       .  S
C1102      C1103   1.402       .  A
C1102      H1113   1.084       .  S
C1103      C1104   1.420       .  A
C1103      C1108   1.409       .  A
C1104      C1105   1.419       .  A
C1105      C1106   1.399       .  A
C1105      H1114   1.077       .  S
C1106      C1107   1.396       .  A
C1106      H1115   1.084       .  S
C1107      C1108   1.406       .  A
C1108      H1116   1.085       .  S
C1117      C1118   1.415       .  A
C1117      C1122   1.411       .  A
C1118      C1119   1.391       .  A
C1118      H1131   1.079       .  S
C1119      C1120   1.406       .  A
C1119      H1132   1.077       .  S
C1120      C1126   1.430       .  A
C1120      C1121   1.422       .  A
C1121      C1123   1.400       .  A
C1121      C1122   1.410       .  A
C1122      H1133   1.084   1_565  S
C1123      C1124   1.392       .  A
C1123      H1134   1.084       .  S
C1124      C1125   1.402       .  A
C1124      H1135   1.083       .  S
C1125      C1126   1.419       .  A
C1125      C1130   1.404       .  A
C1126      C1127   1.421       .  A
C1127      C1128   1.400       .  A
C1127      H1136   1.077       .  S
C1128      C1129   1.394       .  A
C1128      H1137   1.083       .  S
C1129      C1130   1.403       .  A
C1130      H1138   1.084       .  S
C1139      C1140   1.400       .  A
C1139      C1144   1.401       .  A
C1140      C1141   1.406       .  A
C1140      H1153   1.083       .  S
C1141      C1142   1.421       .  A
C1141      H1154   1.078       .  S
C1142      C1148   1.435       .  A
C1142      C1143   1.421       .  A
C1143      C1145   1.398       .  A
C1143      C1144   1.399       .  A
C1144      H1155   1.085       .  S
C1145      C1146   1.386       .  A
C1145      H1156   1.084       .  S
C1146      C1147   1.398       .  A
C1146      H1157   1.084       .  S
C1147      C1148   1.422       .  A
C1147      C1152   1.404       .  A
C1148      C1149   1.411   1_565  A
C1149      C1150   1.399       .  A
C1149      H1158   1.078       .  S
C1150      C1151   1.413       .  A
C1150      H1159   1.083       .  S
C1151      C1152   1.409   1_545  A
C1152      H1160   1.080       .  S
C1161      C1162   1.404       .  A
C1161      C1166   1.406       .  A
C1162      C1163   1.404       .  A
C1162      H1175   1.083       .  S
C1163      C1164   1.416       .  A
C1163      H1176   1.078       .  S
C1164      C1170   1.439       .  A
C1164      C1165   1.423       .  A
C1165      C1167   1.400       .  A
C1165      C1166   1.411       .  A
C1166      H1177   1.084       .  S
C1167      C1168   1.391       .  A
C1167      H1178   1.084       .  S
C1168      C1169   1.401       .  A
C1168      H1179   1.084       .  S
C1169      C1170   1.420       .  A
C1169      C1174   1.409       .  A
C1170      C1171   1.415       .  A
C1171      C1172   1.403       .  A
C1171      H1180   1.078       .  S
C1172      C1173   1.410       .  A
C1172      H1181   1.083       .  S
C1173      C1174   1.416       .  A
C1174      H1182   1.080       .  S
C1183      C1184   1.407       .  A
C1183      C1188   1.418       .  A
C1184      C1185   1.401       .  A
C1184      H1197   1.083       .  S
C1185      C1186   1.416       .  A
C1185      H1198   1.077       .  S
C1186      C1192   1.434       .  A
C1186      C1187   1.416       .  A
C1187      C1189   1.403       .  A
C1187      C1188   1.405       .  A
C1188      H1199   1.080       .  S
C1189      C1190   1.392       .  A
C1189      H1200   1.084       .  S
C1190      C1191   1.399       .  A
C1190      H1201   1.084       .  S
C1191      C1192   1.426       .  A
C1191      C1196   1.414       .  A
C1192      C1193   1.411       .  A
C1193      C1194   1.394       .  A
C1193      H1202   1.078       .  S
C1194      C1195   1.402       .  A
C1194      H1203   1.084       .  S
C1195      C1196   1.401       .  A
C1196      H1204   1.084       .  S
C1205      C1206   1.406       .  A
C1205      C1210   1.414       .  A
C1206      C1207   1.398       .  A
C1206      H1219   1.083       .  S
C1207      C1208   1.414       .  A
C1207      H1220   1.077       .  S
C1208      C1214   1.430       .  A
C1208      C1209   1.418       .  A
C1209      C1211   1.401       .  A
C1209      C1210   1.401       .  A
C1210      H1221   1.081       .  S
C1211      C1212   1.387       .  A
C1211      H1222   1.084       .  S
C1212      C1213   1.398       .  A
C1212      H1223   1.084       .  S
C1213      C1214   1.422       .  A
C1213      C1218   1.401       .  A
C1214      C1215   1.414       .  A
C1215      C1216   1.396       .  A
C1215      H1224   1.077       .  S
C1216      C1217   1.401       .  A
C1216      H1225   1.083       .  S
C1217      C1218   1.402       .  A
C1218      H1226   1.085       .  S
C1227      C1228   1.418       .  A
C1227      C1232   1.404       .  A
C1228      C1229   1.395       .  A
C1228      H1241   1.080       .  S
C1229      C1230   1.406       .  A
C1229      H1242   1.078       .  S
C1230      C1236   1.432       .  A
C1230      C1231   1.424       .  A
C1231      C1233   1.396       .  A
C1231      C1232   1.406       .  A
C1232      H1243   1.084       .  S
C1233      C1234   1.386       .  A
C1233      H1244   1.084       .  S
C1234      C1235   1.400       .  A
C1234      H1245   1.084       .  S
C1235      C1236   1.416       .  A
C1235      C1240   1.395       .  A
C1236      C1237   1.422       .  A
C1237      C1238   1.408       .  A
C1237      H1246   1.078       .  S
C1238      C1239   1.401       .  A
C1238      H1247   1.083       .  S
C1239      C1240   1.407       .  A
C1240      H1248   1.084       .  S
C1249      C1250   1.405       .  A
C1249      C1254   1.403   1_655  A
C1250      C1251   1.400       .  A
C1250      H1263   1.083       .  S
C1251      C1252   1.414       .  A
C1251      H1264   1.078       .  S
C1252      C1258   1.435       .  A
C1252      C1253   1.424   1_655  A
C1253      C1255   1.399       .  A
C1253      C1254   1.410       .  A
C1254      H1265   1.084       .  S
C1255      C1256   1.391       .  A
C1255      H1266   1.084       .  S
C1256      C1257   1.400       .  A
C1256      H1267   1.084       .  S
C1257      C1258   1.418   1_455  A
C1257      C1262   1.406       .  A
C1258      C1259   1.416       .  A
C1259      C1260   1.404       .  A
C1259      H1268   1.078       .  S
C1260      C1261   1.409       .  A
C1260      H1269   1.079       .  S
C1261      C1262   1.413   1_655  A
C1262      H1270   1.085       .  S
C1271      C1272   1.402   1_655  A
C1271      C1276   1.404       .  A
C1272      C1273   1.398       .  A
C1272      H1285   1.083       .  S
C1273      C1274   1.416   1_455  A
C1273      H1286   1.077       .  S
C1274      C1280   1.430       .  A
C1274      C1275   1.421       .  A
C1275      C1277   1.399       .  A
C1275      C1276   1.404       .  A
C1276      H1287   1.084       .  S
C1277      C1278   1.389       .  A
C1277      H1288   1.084       .  S
C1278      C1279   1.400       .  A
C1278      H1289   1.084       .  S
C1279      C1280   1.421       .  A
C1279      C1284   1.405       .  A
C1280      C1281   1.411   1_655  A
C1281      C1282   1.393       .  A
C1281      H1290   1.077       .  S
C1282      C1283   1.409   1_455  A
C1282      H1291   1.083       .  S
C1283      C1284   1.410       .  A
C1284      H1292   1.081       .  S
C1293      C1294   1.399       .  A
C1293      C1298   1.399       .  A
C1294      C1295   1.396       .  A
C1294      H1307   1.083       .  S
C1295      C1296   1.414       .  A
C1295      H1308   1.078       .  S
C1296      C1302   1.429       .  A
C1296      C1297   1.424       .  A
C1297      C1299   1.399       .  A
C1297      C1298   1.405       .  A
C1298      H1309   1.085       .  S
C1299      C1300   1.389       .  A
C1299      H1310   1.084       .  S
C1300      C1301   1.399       .  A
C1300      H1311   1.084       .  S
C1301      C1302   1.418       .  A
C1301      C1306   1.399       .  A
C1302      C1303   1.414       .  A
C1303      C1304   1.399       .  A
C1303      H1312   1.078       .  S
C1304      C1305   1.409       .  A
C1304      H1313   1.079       .  S
C1305      C1306   1.411       .  A
C1306      H1314   1.085       .  S
C1315      C1316   1.395       .  A
C1315      C1320   1.399       .  A
C1316      C1317   1.396       .  A
C1316      H1329   1.084       .  S
C1317      C1318   1.417       .  A
C1317      H1330   1.078       .  S
C1318      C1324   1.425       .  A
C1318      C1319   1.421       .  A
C1319      C1321   1.400       .  A
C1319      C1320   1.402       .  A
C1320      H1331   1.085       .  S
C1321      C1322   1.391       .  A
C1321      H1332   1.084       .  S
C1322      C1323   1.400       .  A
C1322      H1333   1.084       .  S
C1323      C1324   1.420       .  A
C1323      C1328   1.407       .  A
C1324      C1325   1.407       .  A
C1325      C1326   1.389       .  A
C1325      H1334   1.078       .  S
C1326      C1327   1.411       .  A
C1326      H1335   1.084       .  S
C1327      C1328   1.410       .  A
C1328      H1336   1.079       .  S
C1337      C1338   1.398       .  A
C1337      C1342   1.400       .  A
C1338      C1339   1.401       .  A
C1338      H1351   1.084       .  S
C1339      C1340   1.418       .  A
C1339      H1352   1.078       .  S
C1340      C1346   1.433       .  A
C1340      C1341   1.422       .  A
C1341      C1343   1.400       .  A
C1341      C1342   1.407       .  A
C1342      H1353   1.085       .  S
C1343      C1344   1.392       .  A
C1343      H1354   1.084       .  S
C1344      C1345   1.400       .  A
C1344      H1355   1.084       .  S
C1345      C1346   1.422       .  A
C1345      C1350   1.411       .  A
C1346      C1347   1.410       .  A
C1347      C1348   1.396       .  A
C1347      H1356   1.078       .  S
C1348      C1349   1.412       .  A
C1348      H1357   1.084       .  S
C1349      C1350   1.411       .  A
C1350      H1358   1.080       .  S
C1359      C1360   1.395       .  A
C1359      C1364   1.400       .  A
C1360      C1361   1.386       .  A
C1360      H1373   1.084       .  S
C1361      C1362   1.413       .  A
C1361      H1374   1.077       .  S
C1362      C1368   1.421       .  A
C1362      C1363   1.421       .  A
C1363      C1365   1.400       .  A
C1363      C1364   1.406       .  A
C1364      H1375   1.085       .  S
C1365      C1366   1.393       .  A
C1365      H1376   1.084       .  S
C1366      C1367   1.401       .  A
C1366      H1377   1.084       .  S
C1367      C1368   1.421       .  A
C1367      C1372   1.408       .  A
C1368      C1369   1.407       .  A
C1369      C1370   1.382       .  A
C1369      H1378   1.077       .  S
C1370      C1371   1.408       .  A
C1370      H1379   1.084       .  S
C1371      C1372   1.410       .  A
C1372      H1380   1.080       .  S
C1381      C1382   1.400       .  A
C1381      C1386   1.406       .  A
C1382      C1383   1.389       .  A
C1382      H1395   1.083       .  S
C1383      C1384   1.413       .  A
C1383      H1396   1.076       .  S
C1384      C1390   1.426       .  A
C1384      C1385   1.421       .  A
C1385      C1387   1.401       .  A
C1385      C1386   1.407       .  A
C1386      H1397   1.084       .  S
C1387      C1388   1.393       .  A
C1387      H1398   1.084       .  S
C1388      C1389   1.400       .  A
C1388      H1399   1.084       .  S
C1389      C1390   1.420       .  A
C1389      C1394   1.408       .  A
C1390      C1391   1.407       .  A
C1391      C1392   1.386       .  A
C1391      H1400   1.076       .  S
C1392      C1393   1.413       .  A
C1392      H1401   1.080   1_545  S
C1393      C1394   1.411       .  A
C1394      H1402   1.084       .  S
C1403      C1404   1.408       .  A
C1403      C1408   1.411       .  A
C1404      C1405   1.403       .  A
C1404      H1417   1.079       .  S
C1405      C1406   1.417       .  A
C1405      H1418   1.078       .  S
C1406      C1412   1.433       .  A
C1406      C1407   1.419       .  A
C1407      C1409   1.400       .  A
C1407      C1408   1.401       .  A
C1408      H1419   1.085       .  S
C1409      C1410   1.389       .  A
C1409      H1420   1.084       .  S
C1410      C1411   1.398       .  A
C1410      H1421   1.084       .  S
C1411      C1412   1.426       .  A
C1411      C1416   1.407       .  A
C1412      C1413   1.415       .  A
C1413      C1414   1.399       .  A
C1413      H1422   1.078       .  S
C1414      C1415   1.400       .  A
C1414      H1423   1.084       .  S
C1415      C1416   1.396       .  A
C1416      H1424   1.085       .  S
C1425      C1426   1.395       .  A
C1425      C1430   1.401       .  A
C1426      C1427   1.395       .  A
C1426      H1439   1.084       .  S
C1427      C1428   1.415       .  A
C1427      H1440   1.078       .  S
C1428      C1434   1.425       .  A
C1428      C1429   1.422       .  A
C1429      C1431   1.401       .  A
C1429      C1430   1.405       .  A
C1430      H1441   1.085       .  S
C1431      C1432   1.393       .  A
C1431      H1442   1.084       .  S
C1432      C1433   1.401       .  A
C1432      H1443   1.084       .  S
C1433      C1434   1.418       .  A
C1433      C1438   1.406       .  A
C1434      C1435   1.411       .  A
C1435      C1436   1.395       .  A
C1435      H1444   1.079       .  S
C1436      C1437   1.409       .  A
C1436      H1445   1.083       .  S
C1437      C1438   1.412       .  A
C1438      H1446   1.080       .  S
C1447      C1448   1.412       .  A
C1447      C1452   1.410       .  A
C1448      C1449   1.399       .  A
C1448      H1461   1.083       .  S
C1449      C1450   1.411       .  A
C1449      H1462   1.079       .  S
C1450      C1456   1.432       .  A
C1450      C1451   1.420       .  A
C1451      C1453   1.400       .  A
C1451      C1452   1.408       .  A
C1452      H1463   1.082       .  S
C1453      C1454   1.392       .  A
C1453      H1464   1.084       .  S
C1454      C1455   1.401       .  A
C1454      H1465   1.084       .  S
C1455      C1456   1.421       .  A
C1455      C1460   1.407       .  A
C1456      C1457   1.416       .  A
C1457      C1458   1.403       .  A
C1457      H1466   1.079       .  S
C1458      C1459   1.402       .  A
C1458      H1467   1.083       .  S
C1459      C1460   1.403       .  A
C1460      H1468   1.085       .  S
C1469      C1470   1.409   1_655  A
C1469      C1474   1.411       .  A
C1470      C1471   1.398       .  A
C1470      H1483   1.078       .  S
C1471      C1472   1.413   1_455  A
C1471      H1484   1.079       .  S
C1472      C1478   1.426       .  A
C1472      C1473   1.416       .  A
C1473      C1475   1.399       .  A
C1473      C1474   1.397       .  A
C1474      H1485   1.084       .  S
C1475      C1476   1.388       .  A
C1475      H1486   1.084       .  S
C1476      C1477   1.397       .  A
C1476      H1487   1.084       .  S
C1477      C1478   1.423       .  A
C1477      C1482   1.402       .  A
C1478      C1479   1.412   1_655  A
C1479      C1480   1.394       .  A
C1479      H1488   1.079       .  S
C1480      C1481   1.404   1_455  A
C1480      H1489   1.084       .  S
C1481      C1482   1.397       .  A
C1482      H1490   1.085       .  S
C1491      C1492   1.409       .  A
C1491      C1496   1.411   1_655  A
C1492      C1493   1.398       .  A
C1492      H1505   1.083       .  S
C1493      C1494   1.413       .  A
C1493      H1506   1.077       .  S
C1494      C1500   1.434       .  A
C1494      C1495   1.421   1_655  A
C1495      C1497   1.400       .  A
C1495      C1496   1.407       .  A
C1496      H1507   1.080       .  S
C1497      C1498   1.389       .  A
C1497      H1508   1.084       .  S
C1498      C1499   1.399       .  A
C1498      H1509   1.084       .  S
C1499      C1500   1.422   1_455  A
C1499      C1504   1.405       .  A
C1500      C1501   1.417       .  A
C1501      C1502   1.401       .  A
C1501      H1510   1.077       .  S
C1502      C1503   1.402       .  A
C1502      H1511   1.083       .  S
C1503      C1504   1.402   1_655  A
C1504      H1512   1.085       .  S
C1513      C1514   1.399       .  A
C1513      C1518   1.397       .  A
C1514      C1515   1.399       .  A
C1514      H1527   1.084       .  S
C1515      C1516   1.416       .  A
C1515      H1528   1.078       .  S
C1516      C1522   1.432       .  A
C1516      C1517   1.424       .  A
C1517      C1519   1.398       .  A
C1517      C1518   1.405       .  A
C1518      H1529   1.085       .  S
C1519      C1520   1.390       .  A
C1519      H1530   1.084       .  S
C1520      C1521   1.400       .  A
C1520      H1531   1.084       .  S
C1521      C1522   1.419       .  A
C1521      C1526   1.403       .  A
C1522      C1523   1.413       .  A
C1523      C1524   1.400       .  A
C1523      H1532   1.078       .  S
C1524      C1525   1.412       .  A
C1524      H1533   1.077       .  S
C1525      C1526   1.412       .  A
C1526      H1534   1.085       .  S
C1535      C1536   1.400       .  A
C1535      C1540   1.404       .  A
C1536      C1537   1.394       .  A
C1536      H1549   1.084       .  S
C1537      C1538   1.414       .  A
C1537      H1550   1.078       .  S
C1538      C1544   1.426       .  A
C1538      C1539   1.420       .  A
C1539      C1541   1.401       .  A
C1539      C1540   1.408       .  A
C1540      H1551   1.085       .  S
C1541      C1542   1.395       .  A
C1541      H1552   1.084       .  S
C1542      C1543   1.401       .  A
C1542      H1553   1.084       .  S
C1543      C1544   1.421       .  A
C1543      C1548   1.412       .  A
C1544      C1545   1.406       .  A
C1545      C1546   1.388       .  A
C1545      H1554   1.078       .  S
C1546      C1547   1.413       .  A
C1546      H1555   1.083       .  S
C1547      C1548   1.411       .  A
C1548      H1556   1.079       .  S
C1557      C1558   1.394       .  A
C1557      C1562   1.403       .  A
C1558      C1559   1.386       .  A
C1558      H1571   1.084       .  S
C1559      C1560   1.414       .  A
C1559      H1572   1.076       .  S
C1560      C1566   1.424       .  A
C1560      C1561   1.422       .  A
C1561      C1563   1.402       .  A
C1561      C1562   1.409       .  A
C1562      H1573   1.085       .  S
C1563      C1564   1.395       .  A
C1563      H1574   1.084       .  S
C1564      C1565   1.402       .  A
C1564      H1575   1.084       .  S
C1565      C1566   1.422       .  A
C1565      C1570   1.412       .  A
C1566      C1567   1.406       .  A
C1567      C1568   1.381       .  A
C1567      H1576   1.076       .  S
C1568      C1569   1.409       .  A
C1568      H1577   1.084       .  S
C1569      C1570   1.410       .  A
C1570      H1578   1.080       .  S
C1579      C1580   1.401       .  A
C1579      C1584   1.401       .  A
C1580      C1581   1.398       .  A
C1580      H1593   1.084       .  S
C1581      C1582   1.414       .  A
C1581      H1594   1.078       .  S
C1582      C1588   1.434       .  A
C1582      C1583   1.425       .  A
C1583      C1585   1.399       .  A
C1583      C1584   1.410       .  A
C1584      H1595   1.085       .  S
C1585      C1586   1.392       .  A
C1585      H1596   1.084       .  S
C1586      C1587   1.401       .  A
C1586      H1597   1.084       .  S
C1587      C1588   1.417       .  A
C1587      C1592   1.404       .  A
C1588      C1589   1.416       .  A
C1589      C1590   1.403       .  A
C1589      H1598   1.078       .  S
C1590      C1591   1.408       .  A
C1590      H1599   1.078       .  S
C1591      C1592   1.416       .  A
C1592      H1600   1.084       .  S
C1601      C1602   1.408       .  A
C1601      C1606   1.402       .  A
C1602      C1603   1.403       .  A
C1602      H1615   1.083       .  S
C1603      C1604   1.412       .  A
C1603      H1616   1.078       .  S
C1604      C1610   1.439       .  A
C1604      C1605   1.427       .  A
C1605      C1607   1.398       .  A
C1605      C1606   1.410       .  A
C1606      H1617   1.084       .  S
C1607      C1608   1.387       .  A
C1607      H1618   1.084       .  S
C1608      C1609   1.400       .  A
C1608      H1619   1.084       .  S
C1609      C1610   1.414       .  A
C1609      C1614   1.399       .  A
C1610      C1611   1.421       .  A
C1611      C1612   1.413       .  A
C1611      H1620   1.079       .  S
C1612      C1613   1.409       .  A
C1612      H1621   1.082       .  S
C1613      C1614   1.418       .  A
C1614      H1622   1.082   1_565  S
C1623      C1624   1.406       .  A
C1623      C1628   1.400       .  A
C1624      C1625   1.399       .  A
C1624      H1637   1.083       .  S
C1625      C1626   1.414       .  A
C1625      H1638   1.078       .  S
C1626      C1632   1.432       .  A
C1626      C1627   1.423       .  A
C1627      C1629   1.397       .  A
C1627      C1628   1.403       .  A
C1628      H1639   1.084       .  S
C1629      C1630   1.386       .  A
C1629      H1640   1.084       .  S
C1630      C1631   1.400       .  A
C1630      H1641   1.084       .  S
C1631      C1632   1.418       .  A
C1631      C1636   1.400       .  A
C1632      C1633   1.414       .  A
C1633      C1634   1.400       .  A
C1633      H1642   1.077       .  S
C1634      C1635   1.411       .  A
C1634      H1643   1.083       .  S
C1635      C1636   1.413       .  A
C1636      H1644   1.077   1_565  S
C1645      C1646   1.406       .  A
C1645      C1650   1.400       .  A
C1646      C1647   1.401       .  A
C1646      H1659   1.083       .  S
C1647      C1648   1.413       .  A
C1647      H1660   1.078       .  S
C1648      C1654   1.434       .  A
C1648      C1649   1.424       .  A
C1649      C1651   1.396       .  A
C1649      C1650   1.402       .  A
C1650      H1661   1.084       .  S
C1651      C1652   1.384       .  A
C1651      H1662   1.084       .  S
C1652      C1653   1.400       .  A
C1652      H1663   1.084       .  S
C1653      C1654   1.416       .  A
C1653      C1658   1.396       .  A
C1654      C1655   1.417       .  A
C1655      C1656   1.406       .  A
C1655      H1664   1.078       .  S
C1656      C1657   1.409       .  A
C1656      H1665   1.083       .  S
C1657      C1658   1.417       .  A
C1658      H1666   1.079   1_565  S
C1667      C1668   1.410       .  A
C1667      C1672   1.406       .  A
C1668      C1669   1.393       .  A
C1668      H1681   1.083       .  S
C1669      C1670   1.410       .  A
C1669      H1682   1.079       .  S
C1670      C1676   1.424       .  A
C1670      C1671   1.420       .  A
C1671      C1673   1.398       .  A
C1671      C1672   1.403       .  A
C1672      H1683   1.082       .  S
C1673      C1674   1.390       .  A
C1673      H1684   1.084       .  S
C1674      C1675   1.400       .  A
C1674      H1685   1.084       .  S
C1675      C1676   1.421       .  A
C1675      C1680   1.400       .  A
C1676      C1677   1.417       .  A
C1677      C1678   1.398       .  A
C1677      H1686   1.078       .  S
C1678      C1679   1.396       .  A
C1678      H1687   1.084       .  S
C1679      C1680   1.398       .  A
C1680      H1688   1.085       .  S
C1689      C1690   1.406       .  A
C1689      C1694   1.410       .  A
C1690      C1691   1.400       .  A
C1690      H1703   1.079       .  S
C1691      C1692   1.415       .  A
C1691      H1704   1.078       .  S
C1692      C1698   1.428       .  A
C1692      C1693   1.417       .  A
C1693      C1695   1.399       .  A
C1693      C1694   1.396       .  A
C1694      H1705   1.085       .  S
C1695      C1696   1.387       .  A
C1695      H1706   1.084       .  S
C1696      C1697   1.397       .  A
C1696      H1707   1.084       .  S
C1697      C1698   1.424       .  A
C1697      C1702   1.402       .  A
C1698      C1699   1.413       .  A
C1699      C1700   1.395       .  A
C1699      H1708   1.078       .  S
C1700      C1701   1.402       .  A
C1700      H1709   1.084       .  S
C1701      C1702   1.398       .  A
C1702      H1710   1.085       .  S
C1711      C1712   1.394       .  A
C1711      C1716   1.400       .  A
C1712      C1713   1.399       .  A
C1712      H1725   1.083       .  S
C1713      C1714   1.419       .  A
C1713      H1726   1.077       .  S
C1714      C1720   1.429       .  A
C1714      C1715   1.419       .  A
C1715      C1717   1.397       .  A
C1715      C1716   1.401       .  A
C1716      H1727   1.085       .  S
C1717      C1718   1.389       .  A
C1717      H1728   1.079       .  S
C1718      C1719   1.399       .  A
C1718      H1729   1.084       .  S
C1719      C1720   1.422       .  A
C1719      C1724   1.406       .  A
C1720      C1721   1.407       .  A
C1721      C1722   1.391       .  A
C1721      H1730   1.077       .  S
C1722      C1723   1.415       .  A
C1722      H1731   1.079       .  S
C1723      C1724   1.409       .  A
C1724      H1732   1.084       .  S
C1733      C1734   1.408       .  A
C1733      C1738   1.415       .  A
C1734      C1735   1.404       .  A
C1734      H1747   1.078       .  S
C1735      C1736   1.416       .  A
C1735      H1748   1.078       .  S
C1736      C1742   1.434       .  A
C1736      C1737   1.417       .  A
C1737      C1739   1.401       .  A
C1737      C1738   1.405       .  A
C1738      H1749   1.084       .  S
C1739      C1740   1.393       .  A
C1739      H1750   1.084       .  S
C1740      C1741   1.400       .  A
C1740      H1751   1.084       .  S
C1741      C1742   1.424       .  A
C1741      C1746   1.412       .  A
C1742      C1743   1.413       .  A
C1743      C1744   1.399       .  A
C1743      H1752   1.078       .  S
C1744      C1745   1.404       .  A
C1744      H1753   1.083       .  S
C1745      C1746   1.406       .  A
C1746      H1754   1.084       .  S
C1755      C1756   1.412       .  A
C1755      C1760   1.415       .  A
C1756      C1757   1.391       .  A
C1756      H1769   1.079       .  S
C1757      C1758   1.410       .  A
C1757      H1770   1.076       .  S
C1758      C1764   1.431       .  A
C1758      C1759   1.419       .  A
C1759      C1761   1.402       .  A
C1759      C1760   1.412       .  A
C1760      H1771   1.084       .  S
C1761      C1762   1.396       .  A
C1761      H1772   1.084       .  S
C1762      C1763   1.401       .  A
C1762      H1773   1.084       .  S
C1763      C1764   1.424       .  A
C1763      C1768   1.414       .  A
C1764      C1765   1.413       .  A
C1765      C1766   1.391       .  A
C1765      H1774   1.076       .  S
C1766      C1767   1.400       .  A
C1766      H1775   1.084       .  S
C1767      C1768   1.403       .  A
C1768      H1776   1.084       .  S
C1777      C1778   1.408   1_556  A
C1777      C1782   1.411       .  A
C1778      C1779   1.395       .  A
C1778      H1791   1.084       .  S
C1779      C1780   1.413       .  A
C1779      H1792   1.077       .  S
C1780      C1786   1.430       .  A
C1780      C1781   1.420   1_554  A
C1781      C1783   1.400       .  A
C1781      C1782   1.404       .  A
C1782      H1793   1.080       .  S
C1783      C1784   1.389       .  A
C1783      H1794   1.084       .  S
C1784      C1785   1.399       .  A
C1784      H1795   1.084       .  S
C1785      C1786   1.423   1_556  A
C1785      C1790   1.405       .  A
C1786      C1787   1.414       .  A
C1787      C1788   1.396       .  A
C1787      H1796   1.077       .  S
C1788      C1789   1.401   1_554  A
C1788      H1797   1.083       .  S
C1789      C1790   1.402       .  A
C1790      H1798   1.085       .  S
C1799      C1800   1.414       .  A
C1799      C1804   1.407   1_556  A
C1800      C1801   1.401       .  A
C1800      H1813   1.083       .  S
C1801      C1802   1.412       .  A
C1801      H1814   1.078       .  S
C1802      C1808   1.435       .  A
C1802      C1803   1.423   1_556  A
C1803      C1805   1.397       .  A
C1803      C1804   1.401       .  A
C1804      H1815   1.078       .  S
C1805      C1806   1.383       .  A
C1805      H1816   1.084       .  S
C1806      C1807   1.398   1_554  A
C1806      H1817   1.084       .  S
C1807      C1808   1.419       .  A
C1807      C1812   1.394       .  A
C1808      C1809   1.422       .  A
C1809      C1810   1.410       .  A
C1809      H1818   1.078       .  S
C1810      C1811   1.400       .  A
C1810      H1819   1.083       .  S
C1811      C1812   1.403       .  A
C1812      H1820   1.086   1_556  S
C1821      C1822   1.403       .  A
C1821      C1826   1.403   1_556  A
C1822      C1823   1.399       .  A
C1822      H1835   1.083       .  S
C1823      C1824   1.415       .  A
C1823      H1836   1.077       .  S
C1824      C1830   1.433       .  A
C1824      C1825   1.423   1_556  A
C1825      C1827   1.399       .  A
C1825      C1826   1.405       .  A
C1826      H1837   1.085       .  S
C1827      C1828   1.389       .  A
C1827      H1838   1.084       .  S
C1828      C1829   1.400       .  A
C1828      H1839   1.084       .  S
C1829      C1830   1.420   1_554  A
C1829      C1834   1.405       .  A
C1830      C1831   1.413       .  A
C1831      C1832   1.399       .  A
C1831      H1840   1.077       .  S
C1832      C1833   1.409       .  A
C1832      H1841   1.083       .  S
C1833      C1834   1.413   1_556  A
C1834      H1842   1.080       .  S
C1843      C1844   1.415       .  A
C1843      C1848   1.405   1_556  A
C1844      C1845   1.392       .  A
C1844      H1857   1.080       .  S
C1845      C1846   1.407       .  A
C1845      H1858   1.077       .  S
C1846      C1852   1.428       .  A
C1846      C1847   1.423   1_556  A
C1847      C1849   1.397       .  A
C1847      C1848   1.403       .  A
C1848      H1859   1.085       .  S
C1849      C1850   1.386       .  A
C1849      H1860   1.084       .  S
C1850      C1851   1.399       .  A
C1850      H1861   1.084       .  S
C1851      C1852   1.417   1_554  A
C1851      C1856   1.393       .  A
C1852      C1853   1.421       .  A
C1853      C1854   1.402       .  A
C1853      H1862   1.077       .  S
C1854      C1855   1.396       .  A
C1854      H1863   1.083       .  S
C1855      C1856   1.404   1_556  A
C1856      H1864   1.085       .  S
C1865      C1866   1.409       .  A
C1865      C1870   1.415       .  A
C1866      C1867   1.403       .  A
C1866      H1879   1.078       .  S
C1867      C1868   1.414       .  A
C1867      H1880   1.079       .  S
C1868      C1874   1.433       .  A
C1868      C1869   1.417       .  A
C1869      C1871   1.401       .  A
C1869      C1870   1.406       .  A
C1870      H1881   1.084       .  S
C1871      C1872   1.393       .  A
C1871      H1882   1.084       .  S
C1872      C1873   1.400       .  A
C1872      H1883   1.084       .  S
C1873      C1874   1.423       .  A
C1873      C1878   1.410       .  A
C1874      C1875   1.413       .  A
C1875      C1876   1.400       .  A
C1875      H1884   1.079       .  S
C1876      C1877   1.405       .  A
C1876      H1885   1.083       .  S
C1877      C1878   1.404       .  A
C1878      H1886   1.084       .  S
C1887      C1888   1.401       .  A
C1887      C1892   1.404       .  A
C1888      C1889   1.393       .  A
C1888      H1901   1.084       .  S
C1889      C1890   1.412       .  A
C1889      H1902   1.077       .  S
C1890      C1896   1.433       .  A
C1890      C1891   1.423       .  A
C1891      C1893   1.401       .  A
C1891      C1892   1.416       .  A
C1892      H1903   1.084       .  S
C1893      C1894   1.394       .  A
C1893      H1904   1.079       .  S
C1894      C1895   1.400       .  A
C1894      H1905   1.084       .  S
C1895      C1896   1.419       .  A
C1895      C1900   1.411       .  A
C1896      C1897   1.410       .  A
C1897      C1898   1.394       .  A
C1897      H1906   1.077       .  S
C1898      C1899   1.413       .  A
C1898      H1907   1.078       .  S
C1899      C1900   1.414       .  A
C1900      H1908   1.084       .  S
C1909      C1910   1.409       .  A
C1909      C1914   1.412   1_556  A
C1910      C1911   1.398       .  A
C1910      H1923   1.083       .  S
C1911      C1912   1.413       .  A
C1911      H1924   1.077       .  S
C1912      C1918   1.434       .  A
C1912      C1913   1.420   1_556  A
C1913      C1915   1.400       .  A
C1913      C1914   1.406       .  A
C1914      H1925   1.081       .  S
C1915      C1916   1.389       .  A
C1915      H1926   1.084       .  S
C1916      C1917   1.399       .  A
C1916      H1927   1.084       .  S
C1917      C1918   1.422   1_554  A
C1917      C1922   1.406       .  A
C1918      C1919   1.415       .  A
C1919      C1920   1.400       .  A
C1919      H1928   1.077       .  S
C1920      C1921   1.403       .  A
C1920      H1929   1.083       .  S
C1921      C1922   1.404   1_556  A
C1922      H1930   1.084       .  S
C1931      C1932   1.409   1_556  A
C1931      C1936   1.408       .  A
C1932      C1933   1.392       .  A
C1932      H1945   1.083       .  S
C1933      C1934   1.411       .  A
C1933      H1946   1.077       .  S
C1934      C1940   1.424       .  A
C1934      C1935   1.420   1_554  A
C1935      C1937   1.399       .  A
C1935      C1936   1.399       .  A
C1936      H1947   1.080       .  S
C1937      C1938   1.386       .  A
C1937      H1948   1.084       .  S
C1938      C1939   1.397       .  A
C1938      H1949   1.084       .  S
C1939      C1940   1.423   1_556  A
C1939      C1944   1.397       .  A
C1940      C1941   1.417       .  A
C1941      C1942   1.394       .  A
C1941      H1950   1.077       .  S
C1942      C1943   1.393       .  A
C1942      H1951   1.084       .  S
C1943      C1944   1.393   1_554  A
C1944      H1952   1.086       .  S
C1953      C1954   1.408   1_556  A
C1953      C1958   1.412       .  A
C1954      C1955   1.394       .  A
C1954      H1967   1.083       .  S
C1955      C1956   1.411       .  A
C1955      H1968   1.077       .  S
C1956      C1962   1.431       .  A
C1956      C1957   1.421   1_554  A
C1957      C1959   1.401       .  A
C1957      C1958   1.407       .  A
C1958      H1969   1.081       .  S
C1959      C1960   1.390       .  A
C1959      H1970   1.084       .  S
C1960      C1961   1.400       .  A
C1960      H1971   1.084       .  S
C1961      C1962   1.421   1_556  A
C1961      C1966   1.405       .  A
C1962      C1963   1.416       .  A
C1963      C1964   1.397       .  A
C1963      H1972   1.077       .  S
C1964      C1965   1.399       .  A
C1964      H1973   1.083       .  S
C1965      C1966   1.406   1_554  A
C1966      H1974   1.085       .  S
C1975      C1976   1.417       .  A
C1975      C1980   1.408   1_554  A
C1976      C1977   1.396       .  A
C1976      H1989   1.079       .  S
C1977      C1978   1.408       .  A
C1977      H1990   1.078       .  S
C1978      C1984   1.435       .  A
C1978      C1979   1.423   1_554  A
C1979      C1981   1.398       .  A
C1979      C1980   1.409       .  A
C1980      H1991   1.084       .  S
C1981      C1982   1.390       .  A
C1981      H1992   1.084       .  S
C1982      C1983   1.401       .  A
C1982      H1993   1.084       .  S
C1983      C1984   1.418   1_556  A
C1983      C1988   1.402       .  A
C1984      C1985   1.422       .  A
C1985      C1986   1.407       .  A
C1985      H1994   1.078       .  S
C1986      C1987   1.399       .  A
C1986      H1995   1.083       .  S
C1987      C1988   1.406   1_554  A
C1988      H1996   1.085       .  S
C1997      C1998   1.415       .  A
C1997      C2002   1.414   1_545  A
C1998      C1999   1.397       .  A
C1998      H2011   1.083       .  S
C1999      C2000   1.409       .  A
C1999      H2012   1.077       .  S
C2000      C2006   1.440       .  A
C2000      C2001   1.423   1_545  A
C2001      C2003   1.402       .  A
C2001      C2002   1.421       .  A
C2002      H2013   1.077       .  S
C2003      C2004   1.396       .  A
C2003      H2014   1.084       .  S
C2004      C2005   1.402       .  A
C2004      H2015   1.084       .  S
C2005      C2006   1.421   1_565  A
C2005      C2010   1.416       .  A
C2006      C2007   1.417       .  A
C2007      C2008   1.402       .  A
C2007      H2016   1.077       .  S
C2008      C2009   1.404       .  A
C2008      H2017   1.083       .  S
C2009      C2010   1.409   1_545  A
C2010      H2018   1.084       .  S
C2019      C2020   1.411   1_545  A
C2019      C2024   1.413       .  A
C2020      C2021   1.399       .  A
C2020      H2033   1.079       .  S
C2021      C2022   1.412   1_565  A
C2021      H2034   1.079       .  S
C2022      C2028   1.432       .  A
C2022      C2023   1.419       .  A
C2023      C2025   1.401       .  A
C2023      C2024   1.409       .  A
C2024      H2035   1.084       .  S
C2025      C2026   1.394       .  A
C2025      H2036   1.084       .  S
C2026      C2027   1.401       .  A
C2026      H2037   1.084       .  S
C2027      C2028   1.422       .  A
C2027      C2032   1.412       .  A
C2028      C2029   1.413   1_545  A
C2029      C2030   1.398       .  A
C2029      H2038   1.079       .  S
C2030      C2031   1.405   1_565  A
C2030      H2039   1.083       .  S
C2031      C2032   1.405       .  A
C2032      H2040   1.084       .  S
C2041      C2042   1.400       .  A
C2041      C2046   1.408       .  A
C2042      C2043   1.391       .  A
C2042      H2055   1.083       .  S
C2043      C2044   1.415       .  A
C2043      H2056   1.076       .  S
C2044      C2050   1.426       .  A
C2044      C2045   1.419       .  A
C2045      C2047   1.402       .  A
C2045      C2046   1.408       .  A
C2046      H2057   1.084       .  S
C2047      C2048   1.395       .  A
C2047      H2058   1.084       .  S
C2048      C2049   1.400       .  A
C2048      H2059   1.084       .  S
C2049      C2050   1.421       .  A
C2049      C2054   1.412       .  A
C2050      C2051   1.404       .  A
C2051      C2052   1.384       .  A
C2051      H2060   1.076       .  S
C2052      C2053   1.415       .  A
C2052      H2061   1.080       .  S
C2053      C2054   1.411       .  A
C2054      H2062   1.084       .  S
C2063      C2064   1.399       .  A
C2063      C2068   1.401       .  A
C2064      C2065   1.401       .  A
C2064      H2077   1.083       .  S
C2065      C2066   1.417       .  A
C2065      H2078   1.079       .  S
C2066      C2072   1.428       .  A
C2066      C2067   1.420       .  A
C2067      C2069   1.400       .  A
C2067      C2068   1.403       .  A
C2068      H2079   1.085       .  S
C2069      C2070   1.392       .  A
C2069      H2080   1.084       .  S
C2070      C2071   1.400       .  A
C2070      H2081   1.084       .  S
C2071      C2072   1.421       .  A
C2071      C2076   1.408       .  A
C2072      C2073   1.409       .  A
C2073      C2074   1.396       .  A
C2073      H2082   1.079       .  S
C2074      C2075   1.412       .  A
C2074      H2083   1.083       .  S
C2075      C2076   1.409       .  A
C2076      H2084   1.081       .  S
C2085      C2086   1.401       .  A
C2085      C2090   1.407       .  A
C2086      C2087   1.392       .  A
C2086      H2099   1.083       .  S
C2087      C2088   1.415       .  A
C2087      H2100   1.077       .  S
C2088      C2094   1.427       .  A
C2088      C2089   1.419       .  A
C2089      C2091   1.402       .  A
C2089      C2090   1.409       .  A
C2090      H2101   1.084       .  S
C2091      C2092   1.395       .  A
C2091      H2102   1.084       .  S
C2092      C2093   1.401       .  A
C2092      H2103   1.084       .  S
C2093      C2094   1.420       .  A
C2093      C2098   1.414       .  A
C2094      C2095   1.403       .  A
C2095      C2096   1.386       .  A
C2095      H2104   1.077       .  S
C2096      C2097   1.417       .  A
C2096      H2105   1.077       .  S
C2097      C2098   1.413       .  A
C2098      H2106   1.084       .  S
C2107      C2108   1.408       .  A
C2107      C2112   1.409       .  A
C2108      C2109   1.393       .  A
C2108      H2121   1.084       .  S
C2109      C2110   1.411       .  A
C2109      H2122   1.077       .  S
C2110      C2116   1.430       .  A
C2110      C2111   1.422       .  A
C2111      C2113   1.400       .  A
C2111      C2112   1.406       .  A
C2112      H2123   1.081       .  S
C2113      C2114   1.390       .  A
C2113      H2124   1.084       .  S
C2114      C2115   1.399       .  A
C2114      H2125   1.084       .  S
C2115      C2116   1.422       .  A
C2115      C2120   1.403       .  A
C2116      C2117   1.417       .  A
C2117      C2118   1.397       .  A
C2117      H2126   1.077       .  S
C2118      C2119   1.397       .  A
C2118      H2127   1.084       .  S
C2119      C2120   1.400       .  A
C2120      H2128   1.085       .  S
C2129      C2130   1.402       .  A
C2129      C2134   1.404       .  A
C2130      C2131   1.395       .  A
C2130      H2143   1.083       .  S
C2131      C2132   1.415       .  A
C2131      H2144   1.077       .  S
C2132      C2138   1.430       .  A
C2132      C2133   1.421       .  A
C2133      C2135   1.400       .  A
C2133      C2134   1.406       .  A
C2134      H2145   1.084       .  S
C2135      C2136   1.391       .  A
C2135      H2146   1.084       .  S
C2136      C2137   1.400       .  A
C2136      H2147   1.084       .  S
C2137      C2138   1.420       .  A
C2137      C2142   1.407       .  A
C2138      C2139   1.410       .  A
C2139      C2140   1.393       .  A
C2139      H2148   1.077       .  S
C2140      C2141   1.412       .  A
C2140      H2149   1.079       .  S
C2141      C2142   1.410       .  A
C2142      H2150   1.084       .  S
C2151      C2152   1.412       .  A
C2151      C2156   1.412       .  A
C2152      C2153   1.391       .  A
C2152      H2165   1.084       .  S
C2153      C2154   1.410       .  A
C2153      H2166   1.077       .  S
C2154      C2160   1.428       .  A
C2154      C2155   1.420       .  A
C2155      C2157   1.401       .  A
C2155      C2156   1.406       .  A
C2156      H2167   1.079       .  S
C2157      C2158   1.390       .  A
C2157      H2168   1.084       .  S
C2158      C2159   1.399       .  A
C2158      H2169   1.084       .  S
C2159      C2160   1.423       .  A
C2159      C2164   1.405       .  A
C2160      C2161   1.415       .  A
C2161      C2162   1.394       .  A
C2161      H2170   1.077       .  S
C2162      C2163   1.398       .  A
C2162      H2171   1.084       .  S
C2163      C2164   1.399       .  A
C2164      H2172   1.085       .  S
C2173      C2174   1.408       .  A
C2173      C2178   1.415       .  A
C2174      C2175   1.395       .  A
C2174      H2187   1.083       .  S
C2175      C2176   1.411       .  A
C2175      H2188   1.078       .  S
C2176      C2182   1.426       .  A
C2176      C2177   1.417       .  A
C2177      C2179   1.401       .  A
C2177      C2178   1.401       .  A
C2178      H2189   1.078       .  S
C2179      C2180   1.390       .  A
C2179      H2190   1.084       .  S
C2180      C2181   1.399       .  A
C2180      H2191   1.084       .  S
C2181      C2182   1.422       .  A
C2181      C2186   1.402       .  A
C2182      C2183   1.415       .  A
C2183      C2184   1.396       .  A
C2183      H2192   1.078       .  S
C2184      C2185   1.396       .  A
C2184      H2193   1.083       .  S
C2185      C2186   1.399       .  A
C2186      H2194   1.085       .  S
C2195      C2196   1.400       .  A
C2195      C2200   1.394       .  A
C2196      C2197   1.401       .  A
C2196      H2209   1.084       .  S
C2197      C2198   1.416       .  A
C2197      H2210   1.078       .  S
C2198      C2204   1.430       .  A
C2198      C2199   1.424       .  A
C2199      C2201   1.396       .  A
C2199      C2200   1.398       .  A
C2200      H2211   1.085       .  S
C2201      C2202   1.384       .  A
C2201      H2212   1.084       .  S
C2202      C2203   1.397       .  A
C2202      H2213   1.084       .  S
C2203      C2204   1.419       .  A
C2203      C2208   1.394       .  A
C2204      C2205   1.415       .  A
C2205      C2206   1.402       .  A
C2205      H2214   1.078       .  S
C2206      C2207   1.410       .  A
C2206      H2215   1.079       .  S
C2207      C2208   1.407       .  A
C2208      H2216   1.085       .  S
C2217      C2218   1.411       .  A
C2217      C2222   1.413       .  A
C2218      C2219   1.393       .  A
C2218      H2231   1.077       .  S
C2219      C2220   1.411       .  A
C2219      H2232   1.077       .  S
C2220      C2226   1.429       .  A
C2220      C2221   1.419       .  A
C2221      C2223   1.401       .  A
C2221      C2222   1.406       .  A
C2222      H2233   1.085       .  S
C2223      C2224   1.393       .  A
C2223      H2234   1.084       .  S
C2224      C2225   1.401       .  A
C2224      H2235   1.084       .  S
C2225      C2226   1.424       .  A
C2225      C2230   1.410       .  A
C2226      C2227   1.415       .  A
C2227      C2228   1.393       .  A
C2227      H2236   1.077       .  S
C2228      C2229   1.396       .  A
C2228      H2237   1.084       .  S
C2229      C2230   1.401       .  A
C2230      H2238   1.085       .  S
C2239      C2240   1.413       .  A
C2239      C2244   1.413       .  A
C2240      C2241   1.385       .  A
C2240      H2253   1.081       .  S
C2241      C2242   1.404       .  A
C2241      H2254   1.076       .  S
C2242      C2248   1.429       .  A
C2242      C2243   1.423       .  A
C2243      C2245   1.402       .  A
C2243      C2244   1.418       .  A
C2244      H2255   1.083       .  S
C2245      C2246   1.397       .  A
C2245      H2256   1.084       .  S
C2246      C2247   1.403       .  A
C2246      H2257   1.084       .  S
C2247      C2248   1.420       .  A
C2247      C2252   1.411       .  A
C2248      C2249   1.418       .  A
C2249      C2250   1.394       .  A
C2249      H2258   1.076       .  S
C2250      C2251   1.395       .  A
C2250      H2259   1.084       .  S
C2251      C2252   1.406       .  A
C2252      H2260   1.085       .  S
C2261      C2262   1.401       .  A
C2261      C2266   1.406       .  A
C2262      C2263   1.394       .  A
C2262      H2275   1.084       .  S
C2263      C2264   1.414       .  A
C2263      H2276   1.079       .  S
C2264      C2270   1.425       .  A
C2264      C2265   1.418       .  A
C2265      C2267   1.403       .  A
C2265      C2266   1.408       .  A
C2266      H2277   1.084       .  S
C2267      C2268   1.397       .  A
C2267      H2278   1.084       .  S
C2268      C2269   1.401       .  A
C2268      H2279   1.083       .  S
C2269      C2270   1.421       .  A
C2269      C2274   1.415       .  A
C2270      C2271   1.405       .  A
C2271      C2272   1.387       .  A
C2271      H2280   1.079       .  S
C2272      C2273   1.413       .  A
C2272      H2281   1.083       .  S
C2273      C2274   1.410       .  A
C2274      H2282   1.080       .  S
C2283      C2284   1.409       .  A
C2283      C2288   1.408       .  A
C2284      C2285   1.400       .  A
C2284      H2297   1.080       .  S
C2285      C2286   1.413       .  A
C2285      H2298   1.078       .  S
C2286      C2292   1.430       .  A
C2286      C2287   1.420       .  A
C2287      C2289   1.398       .  A
C2287      C2288   1.400       .  A
C2288      H2299   1.085       .  S
C2289      C2290   1.387       .  A
C2289      H2300   1.084       .  S
C2290      C2291   1.398       .  A
C2290      H2301   1.084       .  S
C2291      C2292   1.421       .  A
C2291      C2296   1.398       .  A
C2292      C2293   1.418       .  A
C2293      C2294   1.403       .  A
C2293      H2302   1.078       .  S
C2294      C2295   1.399       .  A
C2294      H2303   1.083       .  S
C2295      C2296   1.400       .  A
C2296      H2304   1.086       .  S
C2305      C2306   1.409   1_545  A
C2305      C2310   1.409       .  A
C2306      C2307   1.392       .  A
C2306      H2319   1.083       .  S
C2307      C2308   1.410   1_565  A
C2307      H2320   1.077       .  S
C2308      C2314   1.430       .  A
C2308      C2309   1.422       .  A
C2309      C2311   1.400       .  A
C2309      C2310   1.408       .  A
C2310      H2321   1.080       .  S
C2311      C2312   1.390       .  A
C2311      H2322   1.084       .  S
C2312      C2313   1.400       .  A
C2312      H2323   1.084       .  S
C2313      C2314   1.421       .  A
C2313      C2318   1.404       .  A
C2314      C2315   1.417   1_545  A
C2315      C2316   1.397       .  A
C2315      H2324   1.077       .  S
C2316      C2317   1.398   1_565  A
C2316      H2325   1.084       .  S
C2317      C2318   1.402       .  A
C2318      H2326   1.085       .  S
C2327      C2328   1.399       .  A
C2327      C2332   1.406   1_545  A
C2328      C2329   1.399       .  A
C2328      H2341   1.083       .  S
C2329      C2330   1.418       .  A
C2329      H2342   1.077       .  S
C2330      C2336   1.433       .  A
C2330      C2331   1.420   1_545  A
C2331      C2333   1.401       .  A
C2331      C2332   1.408       .  A
C2332      H2343   1.085       .  S
C2333      C2334   1.393       .  A
C2333      H2344   1.084       .  S
C2334      C2335   1.401       .  A
C2334      H2345   1.084       .  S
C2335      C2336   1.424   1_565  A
C2335      C2340   1.414       .  A
C2336      C2337   1.408       .  A
C2337      C2338   1.391       .  A
C2337      H2346   1.077       .  S
C2338      C2339   1.411       .  A
C2338      H2347   1.083       .  S
C2339      C2340   1.410   1_545  A
C2340      H2348   1.079       .  S
C2349      C2350   1.413       .  A
C2349      C2354   1.409       .  A
C2350      C2351   1.395       .  A
C2350      H2363   1.083       .  S
C2351      C2352   1.408       .  A
C2351      H2364   1.080       .  S
C2352      C2358   1.428       .  A
C2352      C2353   1.421       .  A
C2353      C2355   1.400       .  A
C2353      C2354   1.409       .  A
C2354      H2365   1.081       .  S
C2355      C2356   1.393       .  A
C2355      H2366   1.084       .  S
C2356      C2357   1.401       .  A
C2356      H2367   1.084       .  S
C2357      C2358   1.419       .  A
C2357      C2362   1.404       .  A
C2358      C2359   1.417       .  A
C2359      C2360   1.402       .  A
C2359      H2368   1.079       .  S
C2360      C2361   1.399       .  A
C2360      H2369   1.083       .  S
C2361      C2362   1.402       .  A
C2362      H2370   1.085       .  S
C2371      C2372   1.403       .  A
C2371      C2376   1.401       .  A
C2372      C2373   1.389       .  A
C2372      H2385   1.083       .  S
C2373      C2374   1.410       .  A
C2373      H2386   1.077       .  S
C2374      C2380   1.426       .  A
C2374      C2375   1.424       .  A
C2375      C2377   1.399       .  A
C2375      C2376   1.406       .  A
C2376      H2387   1.084       .  S
C2377      C2378   1.390       .  A
C2377      H2388   1.084       .  S
C2378      C2379   1.401       .  A
C2378      H2389   1.084       .  S
C2379      C2380   1.416       .  A
C2379      C2384   1.399       .  A
C2380      C2381   1.414       .  A
C2381      C2382   1.395       .  A
C2381      H2390   1.077       .  S
C2382      C2383   1.405       .  A
C2382      H2391   1.081       .  S
C2383      C2384   1.414       .  A
C2384      H2392   1.083       .  S
C2393      C2394   1.410       .  A
C2393      C2398   1.416       .  A
C2394      C2395   1.406       .  A
C2394      H2407   1.083       .  S
C2395      C2396   1.417       .  A
C2395      H2408   1.078       .  S
C2396      C2402   1.433       .  A
C2396      C2397   1.415       .  A
C2397      C2399   1.400       .  A
C2397      C2398   1.396       .  A
C2398      H2409   1.079       .  S
C2399      C2400   1.384       .  A
C2399      H2410   1.084       .  S
C2400      C2401   1.396       .  A
C2400      H2411   1.084       .  S
C2401      C2402   1.425       .  A
C2401      C2406   1.402       .  A
C2402      C2403   1.413       .  A
C2403      C2404   1.400       .  A
C2403      H2412   1.078       .  S
C2404      C2405   1.406       .  A
C2404      H2413   1.083       .  S
C2405      C2406   1.399       .  A
C2406      H2414   1.084       .  S
C2415      C2416   1.411       .  A
C2415      C2420   1.408       .  A
C2416      C2417   1.388       .  A
C2416      H2429   1.083       .  S
C2417      C2418   1.406       .  A
C2417      H2430   1.079       .  S
C2418      C2424   1.423       .  A
C2418      C2419   1.421       .  A
C2419      C2421   1.400       .  A
C2419      C2420   1.410       .  A
C2420      H2431   1.081       .  S
C2421      C2422   1.395       .  A
C2421      H2432   1.084       .  S
C2422      C2423   1.402       .  A
C2422      H2433   1.084       .  S
C2423      C2424   1.419       .  A
C2423      C2428   1.404       .  A
C2424      C2425   1.416       .  A
C2425      C2426   1.396       .  A
C2425      H2434   1.079       .  S
C2426      C2427   1.396       .  A
C2426      H2435   1.084       .  S
C2427      C2428   1.402       .  A
C2428      H2436   1.085       .  S
C2437      C2438   1.407       .  A
C2437      C2442   1.403       .  A
C2438      C2439   1.403       .  A
C2438      H2451   1.083       .  S
C2439      C2440   1.416       .  A
C2439      H2452   1.078       .  S
C2440      C2446   1.439       .  A
C2440      C2441   1.423       .  A
C2441      C2443   1.399       .  A
C2441      C2442   1.410       .  A
C2442      H2453   1.084       .  S
C2443      C2444   1.390       .  A
C2443      H2454   1.084       .  S
C2444      C2445   1.400       .  A
C2444      H2455   1.084       .  S
C2445      C2446   1.421       .  A
C2445      C2450   1.410       .  A
C2446      C2447   1.414       .  A
C2447      C2448   1.403       .  A
C2447      H2456   1.078       .  S
C2448      C2449   1.412       .  A
C2448      H2457   1.083       .  S
C2449      C2450   1.413       .  A
C2450      H2458   1.081       .  S
C2459      C2460   1.405       .  A
C2459      C2464   1.403       .  A
C2460      C2461   1.398       .  A
C2460      H2473   1.083       .  S
C2461      C2462   1.414       .  A
C2461      H2474   1.077       .  S
C2462      C2468   1.435       .  A
C2462      C2463   1.423       .  A
C2463      C2465   1.399       .  A
C2463      C2464   1.410       .  A
C2464      H2475   1.084       .  S
C2465      C2466   1.392       .  A
C2465      H2476   1.084       .  S
C2466      C2467   1.400       .  A
C2466      H2477   1.084       .  S
C2467      C2468   1.420       .  A
C2467      C2472   1.408       .  A
C2468      C2469   1.413       .  A
C2469      C2470   1.398       .  A
C2469      H2478   1.077       .  S
C2470      C2471   1.411       .  A
C2470      H2479   1.080       .  S
C2471      C2472   1.410       .  A
C2472      H2480   1.084       .  S
C2481      C2482   1.394       .  A
C2481      C2486   1.404       .  A
C2482      C2483   1.384       .  A
C2482      H2495   1.084       .  S
C2483      C2484   1.413       .  A
C2483      H2496   1.075       .  S
C2484      C2490   1.423       .  A
C2484      C2485   1.421       .  A
C2485      C2487   1.403       .  A
C2485      C2486   1.411       .  A
C2486      H2497   1.084       .  S
C2487      C2488   1.397       .  A
C2487      H2498   1.084       .  S
C2488      C2489   1.402       .  A
C2488      H2499   1.084       .  S
C2489      C2490   1.422       .  A
C2489      C2494   1.414       .  A
C2490      C2491   1.405       .  A
C2491      C2492   1.379       .  A
C2491      H2500   1.075       .  S
C2492      C2493   1.409       .  A
C2492      H2501   1.083       .  S
C2493      C2494   1.412       .  A
C2494      H2502   1.080       .  S
C2503      C2504   1.413       .  A
C2503      C2508   1.410       .  A
C2504      C2505   1.398       .  A
C2504      H2517   1.083       .  S
C2505      C2506   1.411       .  A
C2505      H2518   1.078       .  S
C2506      C2512   1.434       .  A
C2506      C2507   1.422       .  A
C2507      C2509   1.400       .  A
C2507      C2508   1.410       .  A
C2508      H2519   1.079       .  S
C2509      C2510   1.391       .  A
C2509      H2520   1.084       .  S
C2510      C2511   1.399       .  A
C2510      H2521   1.084       .  S
C2511      C2512   1.423       .  A
C2511      C2516   1.406       .  A
C2512      C2513   1.418       .  A
C2513      C2514   1.401       .  A
C2513      H2522   1.078       .  S
C2514      C2515   1.398       .  A
C2514      H2523   1.084       .  S
C2515      C2516   1.399       .  A
C2516      H2524   1.085       .  S
C2525      C2526   1.397       .  A
C2525      C2530   1.402       .  A
C2526      C2527   1.393       .  A
C2526      H2539   1.084       .  S
C2527      C2528   1.415       .  A
C2527      H2540   1.076       .  S
C2528      C2534   1.430       .  A
C2528      C2529   1.423       .  A
C2529      C2531   1.400       .  A
C2529      C2530   1.409       .  A
C2530      H2541   1.085       .  S
C2531      C2532   1.393       .  A
C2531      H2542   1.084       .  S
C2532      C2533   1.401       .  A
C2532      H2543   1.084       .  S
C2533      C2534   1.421       .  A
C2533      C2538   1.411       .  A
C2534      C2535   1.409       .  A
C2535      C2536   1.390       .  A
C2535      H2544   1.077       .  S
C2536      C2537   1.411       .  A
C2536      H2545   1.083       .  S
C2537      C2538   1.411       .  A
C2538      H2546   1.079       .  S
C2547      C2548   1.398       .  A
C2547      C2552   1.402       .  A
C2548      C2549   1.388       .  A
C2548      H2561   1.084       .  S
C2549      C2550   1.412       .  A
C2549      H2562   1.078       .  S
C2550      C2556   1.422       .  A
C2550      C2551   1.421       .  A
C2551      C2553   1.401       .  A
C2551      C2552   1.407       .  A
C2552      H2563   1.084       .  S
C2553      C2554   1.394       .  A
C2553      H2564   1.084       .  S
C2554      C2555   1.402       .  A
C2554      H2565   1.084       .  S
C2555      C2556   1.417       .  A
C2555      C2560   1.405       .  A
C2556      C2557   1.407       .  A
C2557      C2558   1.388       .  A
C2557      H2566   1.078       .  S
C2558      C2559   1.411       .  A
C2558      H2567   1.076       .  S
C2559      C2560   1.415       .  A
C2560      H2568   1.084       .  S
