geometry optimzed in LAMMPS
_audit_creation_date              2020-11-30 
_audit_creation_method            'lammps2cif' 
_symmetry_space_group_name_H-M    'P1' 
_symmetry_Int_Tables_number       1 
_symmetry_cell_setting            triclinic 
loop_ 
_symmetry_equiv_pos_as_xyz 
  x,y,z 
_cell_length_a                    37.99035963 
_cell_length_b                    37.99455775607996 
_cell_length_c                    37.99364797952745 
_cell_angle_alpha                 90.00645060091122 
_cell_angle_beta                  90.00391654981604 
_cell_angle_gamma                 89.99480661510408 
loop_ 
_atom_site_label 
_atom_site_type_symbol 
_atom_site_fract_x 
_atom_site_fract_y 
_atom_site_fract_z 
_atom_site_charge 
O1          O  0.88417305  0.36241361  0.82540964    -0.80100
C2          C  0.82833912  0.24092974  0.89249937     0.99300
O3          O  0.82492408  0.24966689  0.86073001    -0.69200
O4          O  0.79964586  0.31284055  0.85648455    -0.72800
Al5        Al  0.83837222  0.29061123  0.83528703     1.49000
C6          C  0.79680275  0.34494087  0.86389927     0.94500
O7          O  0.86256068  0.35054227  0.92271549    -0.79000
O8          O  0.93643219  0.29555815  0.87718578    -0.72600
Al9        Al  0.87300459  0.35339877  0.87375175     1.90100
O10         O  0.89410049  0.30370162  0.93472867    -0.71600
O11         O  0.89863858  0.24140337  0.85637232    -0.71500
O12         O  0.85245533  0.25375228  0.91132943    -0.77100
O13         O  0.87403510  0.26634365  0.81051204    -0.75300
O14         O  0.86828404  0.30692560  0.86730635    -1.11500
O15         O  0.84442210  0.32762526  0.80236544    -0.70700
C16         C  0.86657079  0.35199793  0.79932672     1.00100
C17         C  0.87695643  0.33025862  0.94460527     0.96400
Al18       Al  0.89340815  0.27635400  0.89276195     1.55600
O19         O  0.82364042  0.36443663  0.86695695    -0.75300
C20         C  0.89285136  0.24250908  0.82369372     1.00600
C21         C  0.94550716  0.32742479  0.87822190     0.95500
O22         O  0.92311532  0.35180840  0.88176920    -0.80600
O23         O  0.63142710  0.17144027  0.88701993    -0.80100
C24         C  0.75275875  0.10404368  0.83111193     0.99300
O25         O  0.74406332  0.13582337  0.82772397    -0.69200
O26         O  0.68088705  0.14022412  0.80250145    -0.72800
Al27       Al  0.70319390  0.16135798  0.84121143     1.49000
C28         C  0.64878074  0.13282648  0.79966981     0.94500
O29         O  0.64297843  0.07410300  0.86546377    -0.79000
O30         O  0.69818558  0.11937152  0.93926153    -0.72600
Al31       Al  0.64030541  0.12307413  0.87586872     1.90100
O32         O  0.68988434  0.06191387  0.89684188    -0.71600
O33         O  0.75239472  0.14012081  0.90144606    -0.71500
O34         O  0.73990030  0.08521830  0.85520812    -0.77100
O35         O  0.72756583  0.18605183  0.87685809    -0.75300
O36         O  0.68680862  0.12937208  0.87111891    -1.11500
O37         O  0.66627492  0.19439770  0.84728818    -0.70700
C38         C  0.64191654  0.19750060  0.86944470     1.00100
C39         C  0.66323045  0.05214063  0.87978784     0.96400
Al40       Al  0.71733961  0.10380876  0.89619523     1.55600
O41         O  0.62927449  0.12984119  0.82650679    -0.75300
C42         C  0.75139740  0.17280195  0.89563396     1.00600
C43         C  0.66631246  0.11848886  0.94835088     0.95500
O44         O  0.64189897  0.11509679  0.92596989    -0.80600
O45         O  0.82248755  0.10977350  0.63426182    -0.80100
C46         C  0.88977109  0.16562880  0.75558491     0.99300
O47         O  0.85795457  0.16897584  0.74697655    -0.69200
O48         O  0.85353344  0.19426494  0.68384766    -0.72800
Al49       Al  0.83242658  0.15551636  0.70608725     1.49000
C50         C  0.86094747  0.19714157  0.65175382     0.94500
O51         O  0.91981414  0.13135464  0.64599243    -0.79000
O52         O  0.87436488  0.05751800  0.70108583    -0.72600
Al53       Al  0.87083397  0.12093514  0.64322281     1.90100
O54         O  0.93189349  0.09980728  0.69279904    -0.71600
O55         O  0.85366624  0.09534689  0.75530339    -0.71500
O56         O  0.90859528  0.14153044  0.74272454    -0.77100
O57         O  0.80772650  0.11982696  0.73039144    -0.75300
O58         O  0.86445223  0.12564444  0.68970369    -1.11500
O59         O  0.79943502  0.14944511  0.66913256    -0.70700
C60         C  0.79639195  0.12731005  0.64474621     1.00100
C61         C  0.94173413  0.11691887  0.66621537     0.96400
Al62       Al  0.88998220  0.10054889  0.72023387     1.55600
O63         O  0.86403751  0.17032165  0.63222922    -0.75300
C64         C  0.82096861  0.10107873  0.75424481     1.00600
C65         C  0.87534335  0.04842880  0.66921666     0.95500
O66         O  0.87883048  0.07081066  0.64481392    -0.80600
O67         O  0.60868529  0.32347560  0.86437520    -0.80100
C68         C  0.66439674  0.39070068  0.74294168     0.99300
O69         O  0.66788005  0.35892893  0.75164591    -0.69200
O70         O  0.69316250  0.35466204  0.81480172    -0.72800
Al71       Al  0.65447165  0.33342678  0.79256536     1.49000
C72         C  0.69600605  0.36204386  0.84690705     0.94500
O73         O  0.63017550  0.42083138  0.85248506    -0.79000
O74         O  0.55633972  0.37511346  0.79753502    -0.72600
Al75       Al  0.61978842  0.37183917  0.85536585     1.90100
O76         O  0.59852656  0.43275855  0.80569596    -0.71600
O77         O  0.59418053  0.35441150  0.74334970    -0.71500
O78         O  0.64023061  0.40946457  0.75576219    -0.77100
O79         O  0.61886233  0.30859265  0.76827533    -0.75300
O80         O  0.62450624  0.36538955  0.80889427    -1.11500
O81         O  0.64845733  0.30048714  0.82956260    -0.70700
C82         C  0.62630296  0.29741190  0.85392650     1.00100
C83         C  0.61570553  0.44268833  0.83221140     0.96400
Al84       Al  0.59932328  0.39079581  0.77833438     1.55600
O85         O  0.66916683  0.36509023  0.86640498    -0.75300
C86         C  0.60003654  0.32174400  0.74443298     1.00600
C87         C  0.54726082  0.37620455  0.82939966     0.95500
O88         O  0.56965390  0.37980540  0.85377942    -0.80600
O89         O  0.86130027  0.38533943  0.67341712    -0.80100
C90         C  0.73995410  0.32934405  0.60614426     0.99300
O91         O  0.74861532  0.32602926  0.63794247    -0.69200
O92         O  0.81179930  0.30081596  0.64234645    -0.72800
Al93       Al  0.78950061  0.33955509  0.66343694     1.49000
C94         C  0.84389648  0.29797675  0.63490715     0.94500
O95         O  0.84962729  0.36376082  0.57607225    -0.79000
O96         O  0.79441976  0.43755704  0.62135005    -0.72600
Al97       Al  0.85234974  0.37418470  0.62505350     1.90100
O98         O  0.80270557  0.39511522  0.56391144    -0.71600
O99         O  0.74025769  0.39972037  0.64215570    -0.71500
O100        O  0.75277849  0.35343863  0.58729491    -0.77100
O101        O  0.76515401  0.37523445  0.68810321    -0.75300
O102        O  0.80585789  0.36942947  0.63140243    -1.11500
O103        O  0.82643403  0.34566143  0.69643479    -0.70700
C104        C  0.85083440  0.36777186  0.69949459     1.00100
C105        C  0.82934305  0.37805229  0.55411535     0.96400
Al106      Al  0.77529396  0.39446563  0.60583380     1.55600
O107        O  0.86338929  0.32481579  0.63182873    -0.75300
C108        C  0.74129764  0.39397041  0.67484509     1.00600
C109        C  0.82628617  0.44666835  0.62045109     0.95500
O110        O  0.85071784  0.42429861  0.61707262    -0.80600
O111        O  0.67042211  0.13229411  0.61153897    -0.80100
C112        C  0.60313243  0.25359654  0.66751715     0.99300
O113        O  0.63492802  0.24493376  0.67087825    -0.69200
O114        O  0.63923931  0.18175759  0.69605688    -0.72800
Al115      Al  0.66041839  0.20404506  0.65738111     1.49000
C116        C  0.63181870  0.14966071  0.69887211     0.94500
O117        O  0.57304703  0.14398162  0.63301746    -0.79000
O118        O  0.61849501  0.19917802  0.55930519    -0.72600
Al119      Al  0.62204801  0.14123516  0.62265162     1.90100
O120        O  0.56098458  0.19090083  0.60163024    -0.71600
O121        O  0.63926074  0.25331730  0.59722330    -0.71500
O122        O  0.58431033  0.24077717  0.64339369    -0.77100
O123        O  0.68517292  0.22839720  0.62175850    -0.75300
O124        O  0.62842103  0.18771425  0.62744269    -1.11500
O125        O  0.69339492  0.16709303  0.65131672    -0.70700
C126        C  0.69648369  0.14274861  0.62914720     1.00100
C127        C  0.55113371  0.16427466  0.61866621     0.96400
Al128      Al  0.60291197  0.21829168  0.60238254     1.55600
O129        O  0.62878151  0.13017077  0.67202274    -0.75300
C130        C  0.67194716  0.25226824  0.60301770     1.00600
C131        C  0.61754436  0.16731897  0.55017394     0.95500
O132        O  0.61410497  0.14288902  0.57252893    -0.80600
O133        O  0.10864539  0.17124441  0.63406794    -0.80100
C134        C  0.16470198  0.10414050  0.75543354     0.99300
O135        O  0.16802538  0.13593492  0.74675695    -0.69200
O136        O  0.19319400  0.14033718  0.68358388    -0.72800
Al137      Al  0.15446245  0.16141603  0.70587441     1.49000
C138        C  0.19602900  0.13282719  0.65150819     0.94500
O139        O  0.13030447  0.07396440  0.64583513    -0.79000
O140        O  0.05649373  0.11937282  0.70098611    -0.72600
Al141      Al  0.11984555  0.12292559  0.64305978     1.90100
O142        O  0.09887306  0.06187926  0.69271444    -0.71600
O143        O  0.09435614  0.14015896  0.75517080    -0.71500
O144        O  0.14060661  0.08528099  0.74261290    -0.77100
O145        O  0.11878789  0.18609718  0.73023408    -0.75300
O146        O  0.12460407  0.12935018  0.68954198    -1.11500
O147        O  0.14828852  0.19436915  0.66892372    -0.70700
C148        C  0.12614603  0.19736281  0.64453897     1.00100
C149        C  0.11594766  0.05204193  0.66609952     0.96400
Al150      Al  0.09957222  0.10382129  0.72011802     1.55600
O151        O  0.16919625  0.12971599  0.63201217    -0.75300
C152        C  0.10009627  0.17285112  0.75412592     1.00600
C153        C  0.04737774  0.11841177  0.66912225     0.95500
O154        O  0.06973762  0.11491955  0.64470084    -0.80600
O155        O  0.36158331  0.10965771  0.82521802    -0.80100
C156        C  0.24019514  0.16558725  0.89241220     0.99300
O157        O  0.24887844  0.16895615  0.86062482    -0.69200
O158        O  0.31206204  0.19417123  0.85637231    -0.72800
Al159      Al  0.28981159  0.15548544  0.83516468     1.49000
C160        C  0.34416078  0.19699525  0.86380518     0.94500
O161        O  0.34984460  0.13118195  0.92254835    -0.79000
O162        O  0.29470888  0.05742503  0.87705643    -0.72600
Al163      Al  0.35262017  0.12079082  0.87356796     1.90100
O164        O  0.30294392  0.09975391  0.93458955    -0.71600
O165        O  0.24055752  0.09530048  0.85626706    -0.71500
O166        O  0.25303099  0.14147750  0.91123747    -0.77100
O167        O  0.26551277  0.11984475  0.81038842    -0.75300
O168        O  0.30613856  0.12556033  0.86716616    -1.11500
O169        O  0.32680437  0.14943906  0.80221975    -0.70700
C170        C  0.35115076  0.12726322  0.79915249     1.00100
C171        C  0.32955877  0.11681515  0.94444979     0.96400
Al172      Al  0.27556022  0.10048367  0.89264440     1.55600
O173        O  0.36366486  0.17015603  0.86682933    -0.75300
C174        C  0.24164577  0.10108213  0.82358298     1.00600
C175        C  0.32657377  0.04830846  0.87802608     0.95500
O176        O  0.35099172  0.07067168  0.88151976    -0.80600
O177        O  0.17036825  0.36244102  0.88701486    -0.80100
C178        C  0.10321367  0.24100567  0.83110097     0.99300
O179        O  0.13499266  0.24972270  0.82773064    -0.69200
O180        O  0.13919801  0.31290109  0.80251369    -0.72800
Al181      Al  0.16042639  0.29066794  0.84119520     1.49000
C182        C  0.13174908  0.34499263  0.79968663     0.94500
O183        O  0.07303928  0.35069550  0.86549527    -0.79000
O184        O  0.11850479  0.29558131  0.93925432    -0.72600
Al185      Al  0.12201425  0.35347149  0.87588412     1.90100
O186        O  0.06098475  0.30378142  0.89689373    -0.71600
O187        O  0.13933965  0.24142919  0.90139824    -0.71500
O188        O  0.08436913  0.25384429  0.85519929    -0.77100
O189        O  0.18521452  0.26638488  0.87683820    -0.75300
O190        O  0.12841874  0.30698995  0.87111926    -1.11500
O191        O  0.19335932  0.32766691  0.84722622    -0.70700
C192        C  0.19643157  0.35201122  0.86939987     1.00100
C193        C  0.05113354  0.33040586  0.87984518     0.96400
Al194      Al  0.10294143  0.27641086  0.89619449     1.55600
O195        O  0.12874522  0.36450537  0.82652026    -0.75300
C196        C  0.17202445  0.24251317  0.89559675     1.00600
C197        C  0.11754673  0.32744537  0.94836395     0.95500
O198        O  0.11405914  0.35185643  0.92599801    -0.80600
O199        O  0.32238045  0.38512232  0.86425219    -0.80100
C200        C  0.38960916  0.32918928  0.74286726     0.99300
O201        O  0.35783797  0.32577470  0.75159763    -0.69200
O202        O  0.35358283  0.30058139  0.81478515    -0.72800
Al203      Al  0.33236183  0.33925222  0.79251350     1.49000
C204        C  0.36099554  0.29777165  0.84688698     0.94500
O205        O  0.41970347  0.36357013  0.85257013    -0.79000
O206        O  0.37424637  0.43734662  0.79744275    -0.72600
Al207      Al  0.37073140  0.37397207  0.85532306     1.90100
O208        O  0.43178661  0.39498175  0.80566854    -0.71600
O209        O  0.35343919  0.39948085  0.74326999    -0.71500
O210        O  0.40842766  0.35331002  0.75569821    -0.77100
O211        O  0.30757504  0.37486067  0.76818509    -0.75300
O212        O  0.36435010  0.36919707  0.80883824    -1.11500
O213        O  0.29939387  0.34531529  0.82949381    -0.70700
C214        C  0.29631554  0.36751479  0.85381872     1.00100
C215        C  0.44162337  0.37792191  0.83229570     0.96400
Al216      Al  0.38983149  0.39428672  0.77827065     1.55600
O217        O  0.36397902  0.32461837  0.86638212    -0.75300
C218        C  0.32075998  0.39363545  0.74432442     1.00600
C219        C  0.37520679  0.44644885  0.82931028     0.95500
O220        O  0.37870246  0.42407639  0.85371145    -0.80600
O221        O  0.13107181  0.32331232  0.61152737    -0.80100
C222        C  0.25251498  0.39044849  0.66743721     0.99300
O223        O  0.24380205  0.35867093  0.67082282    -0.69200
O224        O  0.18063032  0.35432931  0.69604402    -0.72800
Al225      Al  0.20289142  0.33319163  0.65732220     1.49000
C226        C  0.14854112  0.36179192  0.69889019     0.94500
O227        O  0.14284738  0.42059561  0.63318137    -0.79000
O228        O  0.19788865  0.37515034  0.55930799    -0.72600
Al229      Al  0.14004826  0.37163819  0.62271988     1.90100
O230        O  0.18969977  0.43266845  0.60169211    -0.71600
O231        O  0.25210760  0.35436196  0.59710322    -0.71500
O232        O  0.23967687  0.40928205  0.64333252    -0.77100
O233        O  0.22721825  0.30846150  0.62166013    -0.75300
O234        O  0.18653979  0.36522188  0.62744172    -1.11500
O235        O  0.16592028  0.30024167  0.65121093    -0.70700
C236        C  0.14154884  0.29721432  0.62905613     1.00100
C237        C  0.16311935  0.44251152  0.61882096     0.96400
Al238      Al  0.21709226  0.39072059  0.60235218     1.55600
O239        O  0.12902638  0.36484427  0.67206751    -0.75300
C240        C  0.25106804  0.32167943  0.60289282     1.00600
C241        C  0.16601088  0.37611436  0.55023381     0.95500
O242        O  0.14162482  0.37964774  0.57262121    -0.80600
O243        O  0.38424105  0.13234160  0.67320267    -0.80100
C244        C  0.32810559  0.25360821  0.60595896     0.99300
O245        O  0.32480651  0.24495422  0.63775946    -0.69200
O246        O  0.29964247  0.18176739  0.64209556    -0.72800
Al247      Al  0.33834441  0.20406017  0.66323079     1.49000
C248        C  0.29682606  0.14966557  0.63468718     0.94500
O249        O  0.36254663  0.14390421  0.57591574    -0.79000
O250        O  0.43635242  0.19915507  0.62114812    -0.72600
Al251      Al  0.37301897  0.14122456  0.62486420     1.90100
O252        O  0.39388296  0.19082320  0.56371301    -0.71600
O253        O  0.39848068  0.25331979  0.64197668    -0.71500
O254        O  0.35218943  0.24076645  0.58709796    -0.77100
O255        O  0.37401049  0.22840960  0.68792241    -0.75300
O256        O  0.36823135  0.18771239  0.63120116    -1.11500
O257        O  0.34445796  0.16711239  0.69620924    -0.70700
C258        C  0.36665659  0.14278780  0.69927697     1.00100
C259        C  0.37684438  0.16415646  0.55394653     0.96400
Al260      Al  0.39324091  0.21826925  0.60563272     1.55600
O261        O  0.32367023  0.13016437  0.63168733    -0.75300
C262        C  0.39273153  0.25227880  0.67467246     1.00600
C263        C  0.44547628  0.16729203  0.62023529     0.95500
O264        O  0.42311589  0.14286460  0.61682457    -0.80600
O265        O  0.36152264  0.82341831  0.88697950    -0.80100
C266        C  0.24022550  0.89058987  0.83086800     0.99300
O267        O  0.24888220  0.85878763  0.82754871    -0.69200
O268        O  0.31206958  0.85435298  0.80239344    -0.72800
Al269      Al  0.28975229  0.83329160  0.84112122     1.49000
C270        C  0.34415803  0.86181974  0.79956363     0.94500
O271        O  0.34979847  0.92072667  0.86533755    -0.79000
O272        O  0.29456583  0.87536161  0.93909215    -0.72600
Al273      Al  0.35255544  0.87175210  0.87578322     1.90100
O274        O  0.30288802  0.93283163  0.89672393    -0.71600
O275        O  0.24043495  0.85458448  0.90120703    -0.71500
O276        O  0.25303560  0.90944322  0.85496897    -0.77100
O277        O  0.26537090  0.80862726  0.87678699    -0.75300
O278        O  0.30607532  0.86535390  0.87099278    -1.11500
O279        O  0.32669435  0.80031952  0.84729965    -0.70700
C280        C  0.35105804  0.79730552  0.86946219     1.00100
C281        C  0.32951391  0.94265958  0.87966797     0.96400
Al282      Al  0.27548536  0.89090378  0.89600559     1.55600
O283        O  0.36363764  0.86494927  0.82641338    -0.75300
C284        C  0.24149547  0.82188812  0.89549837     1.00600
C285        C  0.32641924  0.87629781  0.94824370     0.95500
O286        O  0.35087209  0.87975456  0.92590788    -0.80600
O287        O  0.10837800  0.63254209  0.82529480    -0.80100
C288        C  0.16446714  0.75384352  0.89254208     0.99300
O289        O  0.16777382  0.74516809  0.86074638    -0.69200
O290        O  0.19295519  0.68198325  0.85635650    -0.72800
Al291      Al  0.15422708  0.70428863  0.83526027     1.49000
C292        C  0.19578383  0.64989198  0.86380447     0.94500
O293        O  0.12999321  0.64416655  0.92261656    -0.79000
O294        O  0.05622929  0.69943451  0.87736180    -0.72600
Al295      Al  0.11956438  0.64147004  0.87364705     1.90100
O296        O  0.09867001  0.69110433  0.93479713    -0.71600
O297        O  0.09409981  0.75357590  0.85654419    -0.71500
O298        O  0.14038242  0.74101994  0.91140860    -0.77100
O299        O  0.11855386  0.72864749  0.81059448    -0.75300
O300        O  0.12434847  0.68795440  0.86730285    -1.11500
O301        O  0.14809607  0.66735174  0.80226300    -0.70700
C302        C  0.12593854  0.64299220  0.79920821     1.00100
C303        C  0.11568164  0.66442789  0.94457883     0.96400
Al304      Al  0.09933516  0.71853057  0.89287519     1.55600
O305        O  0.16893603  0.63040432  0.86686193    -0.75300
C306        C  0.09984299  0.75252571  0.82385034     1.00600
C307        C  0.04709788  0.66757771  0.87826965     0.95500
O308        O  0.06945281  0.64313398  0.88164708    -0.80600
O309        O  0.17034571  0.88496506  0.63414035    -0.80100
C310        C  0.10308189  0.82933308  0.75561516     0.99300
O311        O  0.13483965  0.82581763  0.74686838    -0.69200
O312        O  0.13900998  0.80050391  0.68370580    -0.72800
Al313      Al  0.16032054  0.83917198  0.70591769     1.49000
C314        C  0.13165235  0.79766469  0.65159246     0.94500
O315        O  0.07298699  0.86351908  0.64595788    -0.79000
O316        O  0.11865613  0.93734322  0.70090771    -0.72600
Al317      Al  0.12197324  0.87388167  0.64310882     1.90100
O318        O  0.06102567  0.89511946  0.69277716    -0.71600
O319        O  0.13939609  0.89953483  0.75508069    -0.71500
O320        O  0.08431457  0.85348367  0.74277134    -0.77100
O321        O  0.18519372  0.87476809  0.73017263    -0.75300
O322        O  0.12838698  0.86916417  0.68958577    -1.11500
O323        O  0.19326632  0.84511578  0.66889959    -0.70700
C324        C  0.19638156  0.86729593  0.64456575     1.00100
C325        C  0.05112012  0.87796149  0.66623922     0.96400
Al326      Al  0.10298606  0.89436585  0.72013621     1.55600
O327        O  0.12869853  0.82450128  0.63208110    -0.75300
C328        C  0.17206122  0.89364556  0.75398693     1.00600
C329        C  0.11760455  0.94641122  0.66904023     0.95500
O330        O  0.11402501  0.92401123  0.64466817    -0.80600
O331        O  0.38402175  0.67131417  0.86451840    -0.80100
C332        C  0.32803881  0.60415975  0.74317759     0.99300
O333        O  0.32473411  0.63597579  0.75179345    -0.69200
O334        O  0.29950364  0.64042135  0.81494114    -0.72800
Al335      Al  0.33826577  0.66147583  0.79267506     1.49000
C336        C  0.29663518  0.63293090  0.84701737     0.94500
O337        O  0.36239598  0.57400219  0.85269055    -0.79000
O338        O  0.43622296  0.61944995  0.79759002    -0.72600
Al339      Al  0.37284066  0.62298130  0.85550264     1.90100
O340        O  0.39390493  0.56195221  0.80585276    -0.71600
O341        O  0.39838164  0.64017919  0.74341356    -0.71500
O342        O  0.35214550  0.58531556  0.75599578    -0.77100
O343        O  0.37397071  0.68614117  0.76834169    -0.75300
O344        O  0.36811326  0.62940886  0.80902665    -1.11500
O345        O  0.34440926  0.69443448  0.82962486    -0.70700
C346        C  0.36652658  0.69743417  0.85403001     1.00100
C347        C  0.37678905  0.55209289  0.83242357     0.96400
Al348      Al  0.39316827  0.60387478  0.77846271     1.55600
O349        O  0.32346091  0.62977799  0.86652465    -0.75300
C350        C  0.39269099  0.67287604  0.74447668     1.00600
C351        C  0.44533205  0.61847719  0.82945313     0.95500
O352        O  0.42296698  0.61498137  0.85387315    -0.80600
O353        O  0.32233930  0.86206508  0.61137099    -0.80100
C354        C  0.38970951  0.74084656  0.66743114     0.99300
O355        O  0.35791487  0.74951154  0.67078481    -0.69200
O356        O  0.35360286  0.81270598  0.69594630    -0.72800
Al357      Al  0.33241041  0.79038443  0.65727861     1.49000
C358        C  0.36099904  0.84481205  0.69874457     0.94500
O359        O  0.41969985  0.85049907  0.63287106    -0.79000
O360        O  0.37433178  0.79519425  0.55918965    -0.72600
Al361      Al  0.37071336  0.85318177  0.62250411     1.90100
O362        O  0.43183864  0.80355310  0.60153860    -0.71600
O363        O  0.35357243  0.74107801  0.59712804    -0.71500
O364        O  0.40853063  0.75365282  0.64330371    -0.77100
O365        O  0.30766506  0.76600782  0.62167206    -0.75300
O366        O  0.36438999  0.80670203  0.62732509    -1.11500
O367        O  0.29940208  0.82732506  0.65120477    -0.70700
C368        C  0.29629096  0.85163586  0.62900309     1.00100
C369        C  0.44164341  0.83023220  0.61853447     0.96400
Al370      Al  0.38991973  0.77611974  0.60228136     1.55600
O371        O  0.36397837  0.86428563  0.67187856    -0.75300
C372        C  0.32088660  0.74212973  0.60293518     1.00600
C373        C  0.37524781  0.82704716  0.55004497     0.95500
O374        O  0.37865961  0.85149520  0.57238819    -0.80600
O375        O  0.13111911  0.60959352  0.67329032    -0.80100
C376        C  0.25265851  0.66528214  0.60616878     0.99300
O377        O  0.24388488  0.66877979  0.63791857    -0.69200
O378        O  0.18070431  0.69404313  0.64205970    -0.72800
Al379      Al  0.20292532  0.65538201  0.66336049     1.49000
C380        C  0.14860485  0.69687087  0.63463088     0.94500
O381        O  0.14306407  0.63097539  0.57592665    -0.79000
O382        O  0.19802139  0.55721864  0.62167508    -0.72600
Al383      Al  0.14016598  0.62064997  0.62492352     1.90100
O384        O  0.18993055  0.59942205  0.56403370    -0.71600
O385        O  0.25216121  0.59507697  0.64245760    -0.71500
O386        O  0.23985633  0.64111987  0.58738619    -0.77100
O387        O  0.22719433  0.61979665  0.68824229    -0.75300
O388        O  0.18663881  0.62539104  0.63139787    -1.11500
O389        O  0.16588795  0.64940163  0.69626687    -0.70700
C390        C  0.14152750  0.62724592  0.69934365     1.00100
C391        C  0.16337882  0.61653538  0.55408763     0.96400
Al392      Al  0.21723857  0.60021302  0.60602634     1.55600
O393        O  0.12911127  0.67002807  0.63160407    -0.75300
C394        C  0.25104951  0.60096342  0.67511836     1.00600
C395        C  0.16615346  0.54813758  0.62060628     0.95500
O396        O  0.14176958  0.57052347  0.61701462    -0.80600
O397        O  0.88414729  0.82355006  0.63430163    -0.80100
C398        C  0.82808808  0.89077680  0.75560369     0.99300
O399        O  0.82472386  0.85899582  0.74690285    -0.69200
O400        O  0.79957984  0.85468908  0.68370655    -0.72800
Al401      Al  0.83825926  0.83351240  0.70602647     1.49000
C402        C  0.79678406  0.86217510  0.65162124     0.94500
O403        O  0.86263281  0.92088209  0.64601067    -0.79000
O404        O  0.93634065  0.87543511  0.70122631    -0.72600
Al405      Al  0.87300929  0.87190324  0.64325612     1.90100
O406        O  0.89399688  0.93295437  0.69295046    -0.71600
O407        O  0.89841099  0.85466234  0.75534956    -0.71500
O408        O  0.85223067  0.90960190  0.74282814    -0.77100
O409        O  0.87386823  0.80876724  0.73041241    -0.75300
O410        O  0.86820132  0.86551663  0.68973328    -1.11500
O411        O  0.84437942  0.80053426  0.66907092    -0.70700
C412        C  0.86656777  0.79747196  0.64473813     1.00100
C413        C  0.87697189  0.94279592  0.66630569     0.96400
Al414      Al  0.89325325  0.89101590  0.72033483     1.55600
O415        O  0.82364665  0.86519179  0.63215201    -0.75300
C416        C  0.89259790  0.82198453  0.75429860     1.00600
C417        C  0.94546776  0.87636754  0.66936591     0.95500
O418        O  0.92311768  0.87983814  0.64493494    -0.80600
O419        O  0.82223140  0.63241364  0.88703113    -0.80100
C420        C  0.88933560  0.75389753  0.83127609     0.99300
O421        O  0.85756195  0.74517625  0.82784837    -0.69200
O422        O  0.85339940  0.68201480  0.80256117    -0.72800
Al423      Al  0.83213045  0.70421565  0.84125412     1.49000
C424        C  0.86084481  0.64992341  0.79971479     0.94500
O425        O  0.91955984  0.64431320  0.86554522    -0.79000
O426        O  0.87393542  0.69928135  0.93936817    -0.72600
Al427      Al  0.87058392  0.64144239  0.87592381     1.90100
O428        O  0.93152784  0.69116030  0.89709119    -0.71600
O429        O  0.85311737  0.75343231  0.90153014    -0.71500
O430        O  0.90814374  0.74108656  0.85541419    -0.77100
O431        O  0.80729061  0.72846358  0.87688381    -0.75300
O432        O  0.86412322  0.68791165  0.87120342    -1.11500
O433        O  0.79922500  0.66718288  0.84724467    -0.70700
C434        C  0.79616575  0.64282378  0.86940108     1.00100
C435        C  0.94143077  0.66459922  0.87996686     0.96400
Al436      Al  0.88954042  0.71849212  0.89635196     1.55600
O437        O  0.86386128  0.63041313  0.82654576    -0.75300
C438        C  0.82044348  0.75232455  0.89568723     1.00600
C439        C  0.87500254  0.66741313  0.94844000     0.95500
O440        O  0.87854620  0.64303394  0.92604253    -0.80600
O441        O  0.63101336  0.88520397  0.82520663    -0.80100
C442        C  0.75235383  0.82926867  0.89242419     0.99300
O443        O  0.74370548  0.82588792  0.86062445    -0.69200
O444        O  0.68054087  0.80068574  0.85624455    -0.72800
Al445      Al  0.70282210  0.83939293  0.83510758     1.49000
C446        C  0.64845489  0.79784849  0.86371569     0.94500
O447        O  0.64284734  0.86361732  0.92253414    -0.79000
O448        O  0.69791230  0.93742529  0.87698693    -0.72600
Al449      Al  0.64001032  0.87404568  0.87355399     1.90100
O450        O  0.68967417  0.89517053  0.93453646    -0.71600
O451        O  0.75209019  0.89955752  0.85628477    -0.71500
O452        O  0.73954891  0.85341466  0.91122474    -0.77100
O453        O  0.72717695  0.87503172  0.81037361    -0.75300
O454        O  0.68648774  0.86930147  0.86712332    -1.11500
O455        O  0.66585772  0.84550960  0.80214040    -0.70700
C456        C  0.64148909  0.86766725  0.79910467     1.00100
C457        C  0.66312870  0.87802706  0.94442099     0.96400
Al458      Al  0.71705716  0.89439456  0.89260982     1.55600
O459        O  0.62895542  0.82468443  0.86678423    -0.75300
C460        C  0.75103515  0.89378778  0.82360143     1.00600
C461        C  0.66604661  0.94652902  0.87802101     0.95500
O462        O  0.64163821  0.92416091  0.88154976    -0.80600
O463        O  0.86148689  0.67151974  0.61152812    -0.80100
C464        C  0.73999856  0.60445943  0.66735318     0.99300
O465        O  0.74872871  0.63622963  0.67077334    -0.69200
O466        O  0.81190621  0.64039530  0.69604918    -0.72800
Al467      Al  0.78970511  0.66164407  0.65735172     1.49000
C468        C  0.84400919  0.63298655  0.69889597     0.94500
O469        O  0.84961185  0.57420910  0.63311530    -0.79000
O470        O  0.79461562  0.61977099  0.55927235    -0.72600
Al471      Al  0.85247724  0.62317610  0.62268681     1.90100
O472        O  0.80274888  0.56221811  0.60159314    -0.71600
O473        O  0.74048444  0.64063710  0.59708315    -0.71500
O474        O  0.75282404  0.58563825  0.64323704    -0.77100
O475        O  0.76546718  0.68646627  0.62170682    -0.75300
O476        O  0.80600502  0.62963545  0.62741901    -1.11500
O477        O  0.82674961  0.69453650  0.65134230    -0.70700
C478        C  0.85108283  0.69759222  0.62915244     1.00100
C479        C  0.82931465  0.55232741  0.61872146     0.96400
Al480      Al  0.77541690  0.60420660  0.60229534     1.55600
O481        O  0.86352018  0.62995723  0.67206216    -0.75300
C482        C  0.74162071  0.67331571  0.60288201     1.00600
C483        C  0.82647768  0.61868608  0.55017934     0.95500
O484        O  0.85087341  0.61515878  0.57256576    -0.80600
O485        O  0.67023343  0.60964616  0.86412699    -0.80100
C486        C  0.60307034  0.66577213  0.74277846     0.99300
O487        O  0.63484270  0.66910720  0.75152699    -0.69200
O488        O  0.63907949  0.69424308  0.81474148    -0.72800
Al489      Al  0.66026889  0.65556977  0.79244471     1.49000
C490        C  0.63164588  0.69704150  0.84683952     0.94500
O491        O  0.57290598  0.63121650  0.85250860    -0.79000
O492        O  0.61820928  0.55751445  0.79722526    -0.72600
Al493      Al  0.62188020  0.62081991  0.85521046     1.90100
O494        O  0.56076799  0.59997889  0.80549740    -0.71600
O495        O  0.63910497  0.59542133  0.74313575    -0.71500
O496        O  0.58419455  0.64168386  0.75558398    -0.77100
O497        O  0.68500670  0.61994226  0.76810253    -0.75300
O498        O  0.62824127  0.62564658  0.80872891    -1.11500
O499        O  0.69323005  0.64947161  0.82942192    -0.70700
C500        C  0.69630336  0.62725725  0.85372484     1.00100
C501        C  0.55096527  0.61693481  0.83220246     0.96400
Al502      Al  0.60271527  0.60063785  0.77811664     1.55600
O503        O  0.62863699  0.67018230  0.86631549    -0.75300
C504        C  0.67179239  0.60121048  0.74421748     1.00600
C505        C  0.61730839  0.54837014  0.82908090     0.95500
O506        O  0.61390775  0.57071581  0.85352543    -0.80600
O507        O  0.60854945  0.86273485  0.67308192    -0.80100
C508        C  0.66475327  0.74150274  0.60586422     0.99300
O509        O  0.66806635  0.75016138  0.63766572    -0.69200
O510        O  0.69317270  0.81335943  0.64204372    -0.72800
Al511      Al  0.65448491  0.79102991  0.66315307     1.49000
C512        C  0.69597602  0.84545352  0.63461114     0.94500
O513        O  0.63018496  0.85106959  0.57574499    -0.79000
O514        O  0.55648435  0.79577142  0.62111513    -0.72600
Al515      Al  0.61974762  0.85380313  0.62472989     1.90100
O516        O  0.59884184  0.80412847  0.56364806    -0.71600
O517        O  0.59442460  0.74167094  0.64190774    -0.71500
O518        O  0.64064642  0.75430603  0.58701246    -0.77100
O519        O  0.61884683  0.76663552  0.68785041    -0.75300
O520        O  0.62458054  0.80732987  0.63111220    -1.11500
O521        O  0.64831913  0.82797369  0.69612641    -0.70700
C522        C  0.62611159  0.85229131  0.69917683     1.00100
C523        C  0.61586175  0.83077381  0.55381587     0.96400
Al524      Al  0.59958879  0.77672371  0.60557074     1.55600
O525        O  0.66911195  0.86492247  0.63153045    -0.75300
C526        C  0.60015039  0.74273989  0.67460511     1.00600
C527        C  0.54730646  0.82761392  0.62015516     0.95500
O528        O  0.56962599  0.85208201  0.61672116    -0.80600
O529        O  0.82243568  0.36221297  0.11159568    -0.80100
C530        C  0.88961674  0.24080696  0.16750463     0.99300
O531        O  0.85784982  0.24955619  0.17091411    -0.69200
O532        O  0.85364221  0.31274143  0.19613373    -0.72800
Al533      Al  0.83240233  0.29048681  0.15745402     1.49000
C534        C  0.86107652  0.34483687  0.19895173     0.94500
O535        O  0.91978203  0.35046917  0.13308524    -0.79000
O536        O  0.87428810  0.29533268  0.05935481    -0.72600
Al537      Al  0.87079707  0.35325010  0.12272367     1.90100
O538        O  0.93182321  0.30353413  0.10169418    -0.71600
O539        O  0.85345356  0.24121755  0.09722358    -0.71500
O540        O  0.90844717  0.25361260  0.14338532    -0.77100
O541        O  0.80760593  0.26618827  0.12183756    -0.75300
O542        O  0.86439818  0.30677610  0.12750357    -1.11500
O543        O  0.79944501  0.32748885  0.15141348    -0.70700
C544        C  0.79636660  0.35180514  0.12921063     1.00100
C545        C  0.94168240  0.33017108  0.11872342     0.96400
Al546      Al  0.88986094  0.27617748  0.10241086     1.55600
O547        O  0.86407906  0.36432403  0.17210037    -0.75300
C548        C  0.82077445  0.24232488  0.10304743     1.00600
C549        C  0.87525599  0.32719269  0.05024620     0.95500
O550        O  0.87873754  0.35160753  0.07261178    -0.80600
O551        O  0.86158352  0.32327897  0.38712562    -0.80100
C552        C  0.74026568  0.39047234  0.33107925     0.99300
O553        O  0.74892855  0.35867705  0.32771615    -0.69200
O554        O  0.81212108  0.35434179  0.30256764    -0.72800
Al555      Al  0.78981589  0.33318947  0.34125268     1.49000
C556        C  0.84421340  0.36179624  0.29975768     0.94500
O557        O  0.84974652  0.42063791  0.36556184    -0.79000
O558        O  0.79460603  0.37510042  0.43931744    -0.72600
Al559      Al  0.85257989  0.37164308  0.37597955     1.90100
O560        O  0.80286117  0.43263814  0.39702903    -0.71600
O561        O  0.74048251  0.35433801  0.40137294    -0.71500
O562        O  0.75304454  0.40928283  0.35523052    -0.77100
O563        O  0.76544594  0.30844068  0.37686764    -0.75300
O564        O  0.80610962  0.36520696  0.37118573    -1.11500
O565        O  0.82678611  0.30023884  0.34737806    -0.70700
C566        C  0.85114207  0.29718959  0.36954472     1.00100
C567        C  0.82942982  0.44252892  0.37992241     0.96400
Al568      Al  0.77550194  0.39068937  0.39624284     1.55600
O569        O  0.86368407  0.36488254  0.32661588    -0.75300
C570        C  0.74155360  0.32165607  0.39558987     1.00600
C571        C  0.82646272  0.37613527  0.44845785     0.95500
O572        O  0.85089476  0.37962751  0.42610571    -0.80600
O573        O  0.88411477  0.17117800  0.36438666    -0.80100
C574        C  0.82782507  0.10405655  0.24312722     0.99300
O575        O  0.82459977  0.13586922  0.25177126    -0.69200
O576        O  0.79948408  0.14024144  0.31496939    -0.72800
Al577      Al  0.83820687  0.16130761  0.29266304     1.49000
C578        C  0.79666739  0.13277104  0.34705533     0.94500
O579        O  0.86241507  0.07386776  0.35272398    -0.79000
O580        O  0.93614153  0.11907469  0.29739202    -0.72600
Al581      Al  0.87288030  0.12283592  0.35543691     1.90100
O582        O  0.89367543  0.06171133  0.30574316    -0.71600
O583        O  0.89822267  0.13995251  0.24331216    -0.71500
O584        O  0.85188901  0.08515038  0.25593436    -0.77100
O585        O  0.87390389  0.18594149  0.26830281    -0.75300
O586        O  0.86805678  0.12921534  0.30896254    -1.11500
O587        O  0.84438498  0.19426849  0.32962083    -0.70700
C588        C  0.86656982  0.19729021  0.35396164     1.00100
C589        C  0.87670127  0.05191797  0.33242919     0.96400
Al590      Al  0.89299571  0.10362537  0.27834853     1.55600
O591        O  0.82352018  0.12966240  0.36653557    -0.75300
C592        C  0.89257511  0.17266053  0.24440553     1.00600
C593        C  0.94531197  0.11813769  0.32923975     0.95500
O594        O  0.92298509  0.11478916  0.35371163    -0.80600
O595        O  0.63095727  0.10968310  0.17317100    -0.80100
C596        C  0.75244115  0.16558237  0.10615348     0.99300
O597        O  0.74367433  0.16901361  0.13791307    -0.69200
O598        O  0.68048088  0.19423346  0.14206602    -0.72800
Al599      Al  0.70270921  0.15555771  0.16331989     1.49000
C600        C  0.64838204  0.19706406  0.13463812     0.94500
O601        O  0.64285406  0.13125856  0.07585838    -0.79000
O602        O  0.69790058  0.05748652  0.12146532    -0.72600
Al603      Al  0.63997731  0.12084409  0.12482845     1.90100
O604        O  0.68975122  0.09977212  0.06390219    -0.71600
O605        O  0.75199317  0.09533504  0.14232742    -0.71500
O606        O  0.73963671  0.14146278  0.08732270    -0.77100
O607        O  0.72698290  0.11993671  0.18815300    -0.75300
O608        O  0.68644553  0.12561385  0.13130566    -1.11500
O609        O  0.66566344  0.14951126  0.19620500    -0.70700
C610        C  0.64135332  0.12729644  0.19925359     1.00100
C611        C  0.66317453  0.11687010  0.05399380     0.96400
Al612      Al  0.71706627  0.10051156  0.10589245     1.55600
O613        O  0.62888901  0.17021836  0.13159323    -0.75300
C614        C  0.75085082  0.10113476  0.17500547     1.00600
C615        C  0.66604815  0.04836468  0.12038357     0.95500
O616        O  0.64163008  0.07072267  0.11682840    -0.80600
O617        O  0.67041372  0.38517636  0.13425011    -0.80100
C618        C  0.60320554  0.32937182  0.25567659     0.99300
O619        O  0.63496480  0.32590087  0.24692851    -0.69200
O620        O  0.63906777  0.30067543  0.18373598    -0.72800
Al621      Al  0.66040530  0.33931060  0.20598035     1.49000
C622        C  0.63164685  0.29787193  0.15163398     0.94500
O623        O  0.57304390  0.36375948  0.14608244    -0.79000
O624        O  0.61869178  0.43751249  0.20110606    -0.72600
Al625      Al  0.62203182  0.37410294  0.14323067     1.90100
O626        O  0.56108252  0.39524565  0.19297707    -0.71600
O627        O  0.63951029  0.39962196  0.25522033    -0.71500
O628        O  0.58443135  0.35355260  0.24289677    -0.77100
O629        O  0.68529773  0.37487372  0.23027041    -0.75300
O630        O  0.62846361  0.36932981  0.18970118    -1.11500
O631        O  0.69332832  0.34528367  0.16895881    -0.70700
C632        C  0.69644868  0.36749152  0.14465468     1.00100
C633        C  0.55117603  0.37813300  0.16640998     0.96400
Al634      Al  0.60306944  0.39448411  0.22029938     1.55600
O635        O  0.62871153  0.32472833  0.13214642    -0.75300
C636        C  0.67217323  0.39371579  0.25411884     1.00600
C637        C  0.61764238  0.44660893  0.16924340     0.95500
O638        O  0.61410402  0.42422623  0.14485151    -0.80600
O639        O  0.60846626  0.13229545  0.32526934    -0.80100
C640        C  0.66448922  0.25364150  0.39245301     0.99300
O641        O  0.66784314  0.24494782  0.36066684    -0.69200
O642        O  0.69301289  0.18177337  0.35627691    -0.72800
Al643      Al  0.65429128  0.20408087  0.33516991     1.49000
C644        C  0.69584326  0.14969748  0.36378168     0.94500
O645        O  0.63008169  0.14405655  0.42258992    -0.79000
O646        O  0.55625592  0.19917919  0.37719511    -0.72600
Al647      Al  0.61964604  0.14127408  0.37361431     1.90100
O648        O  0.59866002  0.19095148  0.43467805    -0.71600
O649        O  0.59411824  0.25335840  0.35639519    -0.71500
O650        O  0.64035759  0.24085701  0.41128608    -0.77100
O651        O  0.61864692  0.22846779  0.31047121    -0.75300
O652        O  0.62439880  0.18775641  0.36720903    -1.11500
O653        O  0.64813367  0.16713921  0.30218681    -0.70700
C654        C  0.62597864  0.14277248  0.29915919     1.00100
C655        C  0.61574846  0.16434693  0.44451538     0.96400
Al656      Al  0.59934030  0.21833271  0.39273512     1.55600
O657        O  0.66900301  0.13021032  0.36684819    -0.75300
C658        C  0.59992082  0.25234183  0.32371390     1.00600
C659        C  0.54716350  0.16730970  0.37816249     0.95500
O660        O  0.56954547  0.14290461  0.38161053    -0.80600
O661        O  0.82238020  0.88505560  0.36439369    -0.80100
C662        C  0.88962725  0.82911826  0.24305881     0.99300
O663        O  0.85782035  0.82576653  0.25169706    -0.69200
O664        O  0.85334837  0.80052595  0.31484160    -0.72800
Al665      Al  0.83228109  0.83927972  0.29256632     1.49000
C666        C  0.86078146  0.79766287  0.34693324     0.94500
O667        O  0.91965070  0.86331785  0.35269168    -0.79000
O668        O  0.87429134  0.93724073  0.29762459    -0.72600
Al669      Al  0.87070158  0.87382557  0.35545249     1.90100
O670        O  0.93179715  0.89485921  0.30590084    -0.71600
O671        O  0.85357459  0.89946082  0.24336973    -0.71500
O672        O  0.90845738  0.85321440  0.25591632    -0.77100
O673        O  0.80761437  0.87496916  0.26821550    -0.75300
O674        O  0.86432286  0.86912448  0.30896119    -1.11500
O675        O  0.79928489  0.84542486  0.32949961    -0.70700
C676        C  0.79626843  0.86756160  0.35388970     1.00100
C677        C  0.94160059  0.87769229  0.33246874     0.96400
Al678      Al  0.88987997  0.89420191  0.27844835     1.55600
O679        O  0.86385188  0.82447912  0.36645346    -0.75300
C680        C  0.82087978  0.89371055  0.24437394     1.00600
C681        C  0.87524846  0.94631217  0.32950016     0.95500
O682        O  0.87875713  0.92392275  0.35388742    -0.80600
O683        O  0.88402315  0.63229141  0.17329496    -0.80100
C684        C  0.82835138  0.75378187  0.10605917     0.99300
O685        O  0.82491233  0.74507886  0.13783397    -0.69200
O686        O  0.79958411  0.68193934  0.14209769    -0.72800
Al687      Al  0.83830341  0.70413599  0.16331899     1.49000
C688        C  0.79672001  0.64984062  0.13469279     0.94500
O689        O  0.86248572  0.64406917  0.07597630    -0.79000
O690        O  0.93639834  0.69900317  0.12147950    -0.72600
Al691      Al  0.87289683  0.64126156  0.12494507     1.90100
O692        O  0.89405218  0.69087467  0.06392297    -0.71600
O693        O  0.89864058  0.75325008  0.14224999    -0.71500
O694        O  0.85246538  0.74090905  0.08726001    -0.77100
O695        O  0.87396476  0.72838627  0.18810781    -0.75300
O696        O  0.86822253  0.68775084  0.13134016    -1.11500
O697        O  0.84428850  0.66714215  0.19627986    -0.70700
C698        C  0.86642117  0.64275465  0.19935470     1.00100
C699        C  0.87688587  0.66432385  0.05406923     0.96400
Al700      Al  0.89339006  0.71826412  0.10587207     1.55600
O701        O  0.82353187  0.63030069  0.13170335    -0.75300
C702        C  0.89279596  0.75220261  0.17492386     1.00600
C703        C  0.94542777  0.66711715  0.12049107     0.95500
O704        O  0.92300232  0.64276844  0.11696790    -0.80600
O705        O  0.63142529  0.82349682  0.11132804    -0.80100
C706        C  0.75280167  0.89069441  0.16734353     0.99300
O707        O  0.74410996  0.85890727  0.17067896    -0.69200
O708        O  0.68092999  0.85454117  0.19587208    -0.72800
Al709      Al  0.70321425  0.83342538  0.15715087     1.49000
C710        C  0.64883432  0.86198300  0.19870481     0.94500
O711        O  0.64310345  0.92078880  0.13297653    -0.79000
O712        O  0.69825898  0.87546453  0.05914362    -0.72600
Al713      Al  0.64036995  0.87183366  0.12252554     1.90100
O714        O  0.68999484  0.93293596  0.10157373    -0.71600
O715        O  0.75246874  0.85465950  0.09699002    -0.71500
O716        O  0.73996699  0.90954893  0.14325104    -0.77100
O717        O  0.72756041  0.80873306  0.12148617    -0.75300
O718        O  0.68686351  0.86546145  0.12727561    -1.11500
O719        O  0.66625996  0.80044686  0.15102768    -0.70700
C720        C  0.64188706  0.79740574  0.12887640     1.00100
C721        C  0.66335203  0.94273480  0.11863367     0.96400
Al722      Al  0.71742214  0.89100341  0.10222873     1.55600
O723        O  0.62933132  0.86503396  0.17187180    -0.75300
C724        C  0.75143866  0.82197242  0.10277106     1.00600
C725        C  0.66638147  0.87639920  0.05005580     0.95500
O726        O  0.64197895  0.87985024  0.07243653    -0.80600
O727        O  0.67029086  0.86265612  0.38687584    -0.80100
C728        C  0.60312260  0.74127271  0.33094591     0.99300
O729        O  0.63492608  0.74992254  0.32760730    -0.69200
O730        O  0.63933796  0.81306835  0.30236905    -0.72800
Al731      Al  0.66042635  0.79081313  0.34111828     1.49000
C732        C  0.63188688  0.84515442  0.29950305     0.94500
O733        O  0.57299401  0.85087437  0.36518980    -0.79000
O734        O  0.61841929  0.79584965  0.43910428    -0.72600
Al735      Al  0.62196132  0.85367573  0.37567203     1.90100
O736        O  0.56092606  0.80405897  0.39672327    -0.71600
O737        O  0.63917674  0.74161313  0.40130458    -0.71500
O738        O  0.58428633  0.75411121  0.35505108    -0.77100
O739        O  0.68511853  0.76648697  0.37680836    -0.75300
O740        O  0.62837774  0.80718932  0.37097095    -1.11500
O741        O  0.69338723  0.82776295  0.34724357    -0.70700
C742        C  0.69640068  0.85215893  0.36936974     1.00100
C743        C  0.55107849  0.83061497  0.37957232     0.96400
Al744      Al  0.60285110  0.77665595  0.39605167     1.55600
O745        O  0.62878862  0.86467406  0.32631798    -0.75300
C746        C  0.67186879  0.74264002  0.39555372     1.00600
C747        C  0.61743060  0.82772605  0.44817723     0.95500
O748        O  0.61392432  0.85210795  0.42577950    -0.80600
O749        O  0.86120766  0.60950375  0.32527428    -0.80100
C750        C  0.73989257  0.66557587  0.39251591     0.99300
O751        O  0.74856340  0.66889619  0.36072278    -0.69200
O752        O  0.81175512  0.69406027  0.35640535    -0.72800
Al753      Al  0.78946350  0.65537007  0.33525400     1.49000
C754        C  0.84385862  0.69687329  0.36381896     0.94500
O755        O  0.84957768  0.63110002  0.42259478    -0.79000
O756        O  0.79434941  0.55732428  0.37728098    -0.72600
Al757      Al  0.85228787  0.62067325  0.37362668     1.90100
O758        O  0.80264331  0.59976435  0.43474596    -0.71600
O759        O  0.74018190  0.59522941  0.35644936    -0.71500
O760        O  0.75271636  0.64147440  0.41136312    -0.77100
O761        O  0.76512006  0.61973042  0.31053664    -0.75300
O762        O  0.80579860  0.62546258  0.36727109    -1.11500
O763        O  0.82641766  0.64927461  0.30228135    -0.70700
C764        C  0.85076610  0.62710401  0.29920886     1.00100
C765        C  0.82930014  0.61680093  0.44454455     0.96400
Al766      Al  0.77522320  0.60043542  0.39281030     1.55600
O767        O  0.86335151  0.67002687  0.36684826    -0.75300
C768        C  0.74122894  0.60102281  0.32376206     1.00600
C769        C  0.82621846  0.54820285  0.37820355     0.95500
O770        O  0.85064310  0.57056868  0.38161681    -0.80600
O771        O  0.60859870  0.67148289  0.13399201    -0.80100
C772        C  0.66435885  0.60433800  0.25550793     0.99300
O773        O  0.66778560  0.63610845  0.24678403    -0.69200
O774        O  0.69306629  0.64035186  0.18362557    -0.72800
Al775      Al  0.65435561  0.66156556  0.20583179     1.49000
C776        C  0.69592297  0.63293425  0.15152940     0.94500
O777        O  0.63017491  0.57415880  0.14583341    -0.79000
O778        O  0.55628547  0.61967575  0.20079677    -0.72600
Al779      Al  0.61974229  0.62313222  0.14299614     1.90100
O780        O  0.59864053  0.56213654  0.19266856    -0.71600
O781        O  0.59407304  0.64050368  0.25500496    -0.71500
O782        O  0.64025307  0.58552326  0.24264839    -0.77100
O783        O  0.61869960  0.68635977  0.23009556    -0.75300
O784        O  0.62444206  0.62956448  0.18948043    -1.11500
O785        O  0.64833590  0.69449536  0.16882312    -0.70700
C786        C  0.62619924  0.69755317  0.14443845     1.00100
C787        C  0.61579336  0.55226201  0.16611582     0.96400
Al788      Al  0.59930985  0.60410581  0.22002928     1.55600
O789        O  0.66910476  0.62990569  0.13200208    -0.75300
C790        C  0.59990934  0.67317862  0.25394689     1.00600
C791        C  0.54722156  0.61862287  0.16892368     0.95500
O792        O  0.56962986  0.61512622  0.14454961    -0.80600
O793        O  0.13101952  0.38474742  0.32536140    -0.80100
C794        C  0.25224042  0.32852523  0.39258984     0.99300
O795        O  0.24356569  0.32518578  0.36079558    -0.69200
O796        O  0.18034501  0.30011080  0.35642996    -0.72800
Al797      Al  0.20270048  0.33877268  0.33530498     1.49000
C798        C  0.14824018  0.29733137  0.36384284     0.94500
O799        O  0.14266903  0.36314486  0.42269565    -0.79000
O800        O  0.19801312  0.43679299  0.37729579    -0.72600
Al801      Al  0.13994131  0.37356443  0.37371182     1.90100
O802        O  0.18963084  0.39447011  0.43477340    -0.71600
O803        O  0.25208134  0.39881622  0.35653243    -0.71500
O804        O  0.23943990  0.35263862  0.41143337    -0.77100
O805        O  0.22711621  0.37438346  0.31059371    -0.75300
O806        O  0.18641559  0.36870014  0.36733160    -1.11500
O807        O  0.16575521  0.34494138  0.30233652    -0.70700
C808        C  0.14144575  0.36715686  0.29927956     1.00100
C809        C  0.16297116  0.37747682  0.44461281     0.96400
Al810      Al  0.21703570  0.39368831  0.39286011     1.55600
O811        O  0.12878887  0.32420823  0.36692031    -0.75300
C812        C  0.25100807  0.39308614  0.32383950     1.00600
C813        C  0.16617425  0.44599170  0.37826214     0.95500
O814        O  0.14169168  0.42368777  0.38170703    -0.80600
O815        O  0.38429105  0.32314070  0.13446581    -0.80100
C816        C  0.32810736  0.39019253  0.25583114     0.99300
O817        O  0.32487141  0.35839461  0.24714476    -0.69200
O818        O  0.29969331  0.35403801  0.18395854    -0.72800
Al819      Al  0.33845370  0.33297947  0.20623590     1.49000
C820        C  0.29685295  0.36153002  0.15187781     0.94500
O821        O  0.36257317  0.42043655  0.14617715    -0.79000
O822        O  0.43639026  0.37525996  0.20141212    -0.72600
Al823      Al  0.37305147  0.37147576  0.14344517     1.90100
O824        O  0.39384615  0.43261314  0.19314805    -0.71600
O825        O  0.39853972  0.35432183  0.25553488    -0.71500
O826        O  0.35216030  0.40911128  0.24302598    -0.77100
O827        O  0.37417311  0.30835108  0.23056006    -0.75300
O828        O  0.36827986  0.36508492  0.18992555    -1.11500
O829        O  0.34461735  0.30003025  0.16927078    -0.70700
C830        C  0.36676209  0.29702492  0.14489524     1.00100
C831        C  0.37685149  0.44239691  0.16646406     0.96400
Al832      Al  0.39324763  0.39067200  0.22052630     1.55600
O833        O  0.32369126  0.36464789  0.13238706    -0.75300
C834        C  0.39285064  0.32162124  0.25445597     1.00600
C835        C  0.44551121  0.37619879  0.16954992     0.95500
O836        O  0.42314439  0.37953146  0.14511283    -0.80600
O837        O  0.32227922  0.13197655  0.38689987    -0.80100
C838        C  0.38955690  0.25342810  0.33126970     0.99300
O839        O  0.35779700  0.24469162  0.32774796    -0.69200
O840        O  0.35369105  0.18152965  0.30243180    -0.72800
Al841      Al  0.33233039  0.20372220  0.34107792     1.49000
C842        C  0.36102479  0.14941175  0.29959677     0.94500
O843        O  0.41965260  0.14378544  0.36546701    -0.79000
O844        O  0.37395276  0.19874479  0.43926054    -0.72600
Al845      Al  0.37066204  0.14093171  0.37582037     1.90100
O846        O  0.43159781  0.19061457  0.39706193    -0.71600
O847        O  0.35318905  0.25288701  0.40145459    -0.71500
O848        O  0.40831141  0.24058759  0.35542745    -0.77100
O849        O  0.30741925  0.22794895  0.37666368    -0.75300
O850        O  0.36424756  0.18740317  0.37109088    -1.11500
O851        O  0.29939427  0.16668469  0.34698544    -0.70700
C852        C  0.29625429  0.14238665  0.36920221     1.00100
C853        C  0.44151295  0.16407949  0.37990286     0.96400
Al854      Al  0.38962710  0.21796230  0.39629675     1.55600
O855        O  0.36394473  0.12989571  0.32643563    -0.75300
C856        C  0.32052327  0.25175829  0.39556601     1.00600
C857        C  0.37503341  0.16688542  0.44833907     0.95500
O858        O  0.37860988  0.14250381  0.42594966    -0.80600
O859        O  0.17026123  0.10923971  0.36404840    -0.80100
C860        C  0.10294716  0.16512503  0.24267911     0.99300
O861        O  0.13470078  0.16858635  0.25144561    -0.69200
O862        O  0.13888305  0.19376976  0.31464813    -0.72800
Al863      Al  0.16017854  0.15513541  0.29235346     1.49000
C864        C  0.13147014  0.19655716  0.34675262     0.94500
O865        O  0.07288525  0.13065480  0.35237520    -0.79000
O866        O  0.11839540  0.05694728  0.29722774    -0.72600
Al867      Al  0.12187581  0.12032517  0.35513127     1.90100
O868        O  0.06083139  0.09927935  0.30542963    -0.71600
O869        O  0.13919990  0.09484668  0.24309690    -0.71500
O870        O  0.08415810  0.14096294  0.25546907    -0.77100
O871        O  0.18502081  0.11957897  0.26800183    -0.75300
O872        O  0.12823915  0.12512508  0.30864885    -1.11500
O873        O  0.19316370  0.14911840  0.32933206    -0.70700
C874        C  0.19629729  0.12689846  0.35362574     1.00100
C875        C  0.05097943  0.11631588  0.33206703     0.96400
Al876      Al  0.10279037  0.10000574  0.27805975     1.55600
O877        O  0.12855216  0.16969209  0.36622873    -0.75300
C878        C  0.17186481  0.10076007  0.24415205     1.00600
C879        C  0.11743905  0.04784226  0.32909223     0.95500
O880        O  0.11396547  0.07021493  0.35349848    -0.80600
O881        O  0.36158017  0.17112015  0.11149789    -0.80100
C882        C  0.24006954  0.10402304  0.16726575     0.99300
O883        O  0.24880086  0.13579110  0.17069950    -0.69200
O884        O  0.31197832  0.13999415  0.19596090    -0.72800
Al885      Al  0.28975200  0.16123189  0.15726632     1.49000
C886        C  0.34406942  0.13252839  0.19879752     0.94500
O887        O  0.34964886  0.07377548  0.13296169    -0.79000
O888        O  0.29466866  0.11941837  0.05916322    -0.72600
Al889      Al  0.35253020  0.12276290  0.12259057     1.90100
O890        O  0.30278569  0.06182776  0.10143248    -0.71600
O891        O  0.24051573  0.14022322  0.09700443    -0.71500
O892        O  0.25287637  0.08521655  0.14312437    -0.77100
O893        O  0.26547758  0.18605362  0.12163894    -0.75300
O894        O  0.30605536  0.12923232  0.12732115    -1.11500
O895        O  0.32677456  0.19414289  0.15124650    -0.70700
C896        C  0.35115730  0.19719299  0.12911178     1.00100
C897        C  0.32933754  0.05191079  0.11856097     0.96400
Al898      Al  0.27546413  0.10381342  0.10218127     1.55600
O899        O  0.36356862  0.12947407  0.17196210    -0.75300
C900        C  0.24162038  0.17289504  0.10283318     1.00600
C901        C  0.32653948  0.11838912  0.05008239     0.95500
O902        O  0.35092826  0.11482471  0.07246813    -0.80600
O903        O  0.10859668  0.36220807  0.17326247    -0.80100
C904        C  0.16462247  0.24094452  0.10597465     0.99300
O905        O  0.16789635  0.24952186  0.13780474    -0.69200
O906        O  0.19312511  0.31265651  0.14238130    -0.72800
Al907      Al  0.15433916  0.29036290  0.16335856     1.49000
C908        C  0.19600478  0.34473809  0.13492272     0.94500
O909        O  0.13030618  0.35054819  0.07596218    -0.79000
O910        O  0.05642434  0.29537583  0.12121591    -0.72600
Al911      Al  0.11981941  0.35326469  0.12493069     1.90100
O912        O  0.09882887  0.30372439  0.06378477    -0.71600
O913        O  0.09424012  0.24113488  0.14192051    -0.71500
O914        O  0.14054452  0.25380252  0.08711920    -0.77100
O915        O  0.11860950  0.26598860  0.18794438    -0.75300
O916        O  0.12453043  0.30677377  0.13128390    -1.11500
O917        O  0.14816142  0.32726036  0.19637916    -0.70700
C918        C  0.12605958  0.35168013  0.19938625     1.00100
C919        C  0.11593457  0.33033001  0.05399803     0.96400
Al920      Al  0.09950165  0.27625643  0.10566751     1.55600
O921        O  0.16918927  0.36425860  0.13178317    -0.75300
C922        C  0.09992087  0.24212990  0.17462557     1.00600
C923        C  0.04732765  0.32724568  0.12029656     0.95500
O924        O  0.06970606  0.35166280  0.11688226    -0.80600
O925        O  0.38404392  0.86232388  0.32518078    -0.80100
C926        C  0.32833844  0.74078344  0.39226692     0.99300
O927        O  0.32487527  0.74954335  0.36051102    -0.69200
O928        O  0.29959237  0.81270388  0.35637322    -0.72800
Al929      Al  0.33827501  0.79050944  0.33508501     1.49000
C930        C  0.29674767  0.84479033  0.36383628     0.94500
O931        O  0.36256633  0.85040249  0.42251372    -0.79000
O932        O  0.43641712  0.79550041  0.37685696    -0.72600
Al933      Al  0.37294114  0.85329127  0.37353593     1.90100
O934        O  0.39412296  0.80355533  0.43446116    -0.71600
O935        O  0.39860926  0.74132274  0.35602791    -0.71500
O936        O  0.35248685  0.75359398  0.41106600    -0.77100
O937        O  0.37389463  0.76626291  0.31022665    -0.75300
O938        O  0.36823488  0.80681674  0.36706734    -1.11500
O939        O  0.34425952  0.82754374  0.30218077    -0.70700
C940        C  0.36642804  0.85189322  0.29911276     1.00100
C941        C  0.37697813  0.83009943  0.44437600     0.96400
Al942      Al  0.39340894  0.77624250  0.39246445     1.55600
O943        O  0.32357241  0.86430926  0.36682840    -0.75300
C944        C  0.39273574  0.74242242  0.32336196     1.00600
C945        C  0.44546199  0.82737916  0.37789801     0.95500
O946        O  0.42304996  0.85173406  0.38148423    -0.80600
O947        O  0.10863468  0.82296871  0.36455786    -0.80100
C948        C  0.16441407  0.89009675  0.24306826     0.99300
O949        O  0.16787077  0.85833513  0.25181188    -0.69200
O950        O  0.19311261  0.85416341  0.31498796    -0.72800
Al951      Al  0.15444353  0.83289406  0.29276522     1.49000
C952        C  0.19594153  0.86160855  0.34708013     0.94500
O953        O  0.13011908  0.92032154  0.35266143    -0.79000
O954        O  0.05631853  0.87468115  0.29767710    -0.72600
Al955      Al  0.11973708  0.87133448  0.35553698     1.90100
O956        O  0.09858969  0.93226646  0.30579651    -0.71600
O957        O  0.09416181  0.85386703  0.24353979    -0.71500
O958        O  0.14026953  0.90889325  0.25588305    -0.77100
O959        O  0.11883168  0.80805085  0.26849448    -0.75300
O960        O  0.12447854  0.86487497  0.30906510    -1.11500
O961        O  0.14843760  0.79998160  0.32978661    -0.70700
C962        C  0.12626440  0.79690506  0.35413121     1.00100
C963        C  0.11572654  0.94218422  0.33234186     0.96400
Al964      Al  0.09933479  0.89028497  0.27847654     1.55600
O965        O  0.16910535  0.86461653  0.36658530    -0.75300
C966        C  0.10000997  0.82119854  0.24464535     1.00600
C967        C  0.04722979  0.87575196  0.32953986     0.95500
O968        O  0.06961529  0.87929414  0.35393094    -0.80600
O969        O  0.36124736  0.88490779  0.17313198    -0.80100
C970        C  0.23984790  0.82891464  0.10602352     0.99300
O971        O  0.24856321  0.82556484  0.13780332    -0.69200
O972        O  0.31174566  0.80036545  0.14204493    -0.72800
Al973      Al  0.28948935  0.83906377  0.16323930     1.49000
C974        C  0.34383077  0.79753402  0.13456209     0.94500
O975        O  0.34945231  0.86337388  0.07580594    -0.79000
O976        O  0.29430965  0.93712734  0.12129826    -0.72600
Al977      Al  0.35225063  0.87375756  0.12478490     1.90100
O978        O  0.30252468  0.89477681  0.06377376    -0.71600
O979        O  0.24017309  0.89922081  0.14213815    -0.71500
O980        O  0.25263546  0.85303352  0.08717742    -0.77100
O981        O  0.26517612  0.87469617  0.18800624    -0.75300
O982        O  0.30577509  0.86898322  0.13121287    -1.11500
O983        O  0.32649035  0.84514885  0.19617718    -0.70700
C984        C  0.35082554  0.86733616  0.19922192     1.00100
C985        C  0.32916516  0.87775237  0.05390826     0.96400
Al986      Al  0.27516355  0.89404695  0.10574084     1.55600
O987        O  0.36332340  0.82437832  0.13151242    -0.75300
C988        C  0.24126750  0.89341523  0.17481904     1.00600
C989        C  0.32617504  0.94624209  0.12030344     0.95500
O990        O  0.35059390  0.92387346  0.11682632    -0.80600
O991        O  0.17026735  0.63185583  0.11146494    -0.80100
C992        C  0.10311308  0.75311004  0.16767845     0.99300
O993        O  0.13492098  0.74445706  0.17098013    -0.69200
O994        O  0.13931459  0.68125558  0.19609177    -0.72800
Al995      Al  0.16040361  0.70358613  0.15738555     1.49000
C996        C  0.13185310  0.64916690  0.19889885     0.94500
O997        O  0.07296333  0.64359423  0.13314412    -0.79000
O998        O  0.11834588  0.69885131  0.05941261    -0.72600
Al999      Al  0.12193309  0.64082281  0.12267662     1.90100
O1000       O  0.06087822  0.69051058  0.10176586    -0.71600
O1001       O  0.13912616  0.75294211  0.09734199    -0.71500
O1002       O  0.08425622  0.74031807  0.14356920    -0.77100
O1003       O  0.18508642  0.72797823  0.12173370    -0.75300
O1004       O  0.12834358  0.68729239  0.12749962    -1.11500
O1005       O  0.19335842  0.66663535  0.15119413    -0.70700
C1006       C  0.19637365  0.64228896  0.12901467     1.00100
C1007       C  0.05104081  0.66389683  0.11882642     0.96400
Al1008     Al  0.10280200  0.71790106  0.10251153     1.55600
O1009       O  0.12874616  0.62970275  0.17203598    -0.75300
C1010       C  0.17182589  0.75186899  0.10304313     1.00600
C1011       C  0.11736570  0.66700998  0.05023485     0.95500
O1012       O  0.11390826  0.64254452  0.07255396    -0.80600
O1013       O  0.32233784  0.60926719  0.13404887    -0.80100
C1014       C  0.38958509  0.66545306  0.25526811     0.99300
O1015       O  0.35776396  0.66873329  0.24665377    -0.69200
O1016       O  0.35331410  0.69387838  0.18346434    -0.72800
Al1017     Al  0.33225469  0.65515437  0.20578828     1.49000
C1018       C  0.36074810  0.69670190  0.15136944     0.94500
O1019       O  0.41963284  0.63096738  0.14568210    -0.79000
O1020       O  0.37435908  0.55720552  0.20097061    -0.72600
Al1021     Al  0.37067175  0.62048902  0.14297034     1.90100
O1022       O  0.43181064  0.59959976  0.19258132    -0.71600
O1023       O  0.35359914  0.59510159  0.25509979    -0.71500
O1024       O  0.40844490  0.64136441  0.24244039    -0.77100
O1025       O  0.30760913  0.61947708  0.23017134    -0.75300
O1026       O  0.36431342  0.62529102  0.18944960    -1.11500
O1027       O  0.29926569  0.64897939  0.16885715    -0.70700
C1028       C  0.29623656  0.62680824  0.14450397     1.00100
C1029       C  0.44159666  0.61666855  0.16594955     0.96400
Al1030     Al  0.38990084  0.60030508  0.22002265     1.55600
O1031       O  0.36383832  0.66985082  0.13188632    -0.75300
C1032       C  0.32089305  0.60078623  0.25404840     1.00600
C1033       C  0.37527258  0.54804402  0.16912149     0.95500
O1034       O  0.37870259  0.57037165  0.14466110    -0.80600
O1035       O  0.13145475  0.67090786  0.38710452    -0.80100
C1036       C  0.25282910  0.60375550  0.33105768     0.99300
O1037       O  0.24408919  0.63552549  0.32768106    -0.69200
O1038       O  0.18088776  0.63979621  0.30252771    -0.72800
Al1039     Al  0.20318484  0.66098318  0.34121011     1.49000
C1040       C  0.14879756  0.63232951  0.29971696     0.94500
O1041       O  0.14320662  0.57357998  0.36555609    -0.79000
O1042       O  0.19839049  0.61904647  0.43928698    -0.72600
Al1043     Al  0.14042742  0.62255720  0.37594607     1.90100
O1044       O  0.19015138  0.56152078  0.39692470    -0.71600
O1045       O  0.25251799  0.63987752  0.40137060    -0.71500
O1046       O  0.24004930  0.58491928  0.35518794    -0.77100
O1047       O  0.22754533  0.68574654  0.37681826    -0.75300
O1048       O  0.18690604  0.62896689  0.37114554    -1.11500
O1049       O  0.16620028  0.69394196  0.34732761    -0.70700
C1050       C  0.14187810  0.69699615  0.36953081     1.00100
C1051       C  0.16350291  0.55166974  0.37990247     0.96400
Al1052     Al  0.21752142  0.60348651  0.39620063     1.55600
O1053       O  0.12932240  0.62929030  0.32657537    -0.75300
C1054       C  0.25144630  0.67255527  0.39554603     1.00600
C1055       C  0.16652862  0.61807976  0.44841434     0.95500
O1056       O  0.14210112  0.61459847  0.42605837    -0.80600
C1057       C  0.29876962  0.58969889  0.28251678    -0.11500
C1058       C  0.27808963  0.59030043  0.30653373    -0.13100
C1059       C  0.23076177  0.62715197  0.12472461    -0.11500
C1060       C  0.26184429  0.62251609  0.12937586    -0.13100
C1061       C  0.12963702  0.63491449  0.23381729    -0.11500
C1062       C  0.13454856  0.63004111  0.26479804    -0.13100
C1063       C  0.21461538  0.80436693  0.09256795    -0.11500
C1064       C  0.19395993  0.78033137  0.09196977    -0.13100
C1065       C  0.35805464  0.76260716  0.13226672    -0.11500
C1066       C  0.36295594  0.73162511  0.13713248    -0.13100
C1067       C  0.08962599  0.77829741  0.19224273    -0.11500
C1068       C  0.08896399  0.79898040  0.21624742    -0.13100
C1069       C  0.12206589  0.76248957  0.36924436    -0.11500
C1070       C  0.12675704  0.73140231  0.37383304    -0.13100
C1071       C  0.21280678  0.90436394  0.19701969    -0.11500
C1072       C  0.18885024  0.90361141  0.21776179    -0.13100
C1073       C  0.37063889  0.86701493  0.26470526    -0.11500
C1074       C  0.36595918  0.87162285  0.23362080    -0.13100
C1075       C  0.40308669  0.69001978  0.28044900    -0.11500
C1076       C  0.40376915  0.71402367  0.30113439    -0.13100
C1077       C  0.23085400  0.86389074  0.36130272    -0.11500
C1078       C  0.26183173  0.85899901  0.36616298    -0.13100
C1079       C  0.30389289  0.71547309  0.40576742    -0.11500
C1080       C  0.27991991  0.69474494  0.40649704    -0.13100
C1081       C  0.33425793  0.98308943  0.12197036    -0.11500
C1082       C  0.33545795  0.01478827  0.12162011    -0.13100
C1083       C  0.21321058  0.19510387  0.09178813    -0.11500
C1084       C  0.18919292  0.21577492  0.09245901    -0.13100
C1085       C  0.11914399  0.01100312  0.33719678    -0.11500
C1086       C  0.11880316  0.97930679  0.33843817    -0.13100
C1087       C  0.19407158  0.08979072  0.21570700    -0.11500
C1088       C  0.21479067  0.09051578  0.19173139    -0.13100
C1089       C  0.08945811  0.18960232  0.21738655    -0.11500
C1090       C  0.08883892  0.21362159  0.19670764    -0.13100
C1091       C  0.23073188  0.12267461  0.36870819    -0.11500
C1092       C  0.26182014  0.12730012  0.37337679    -0.13100
C1093       C  0.35830697  0.13027164  0.23371274    -0.11500
C1094       C  0.36324496  0.13517501  0.26467942    -0.13100
C1095       C  0.37383548  0.47948128  0.16012413    -0.11500
C1096       C  0.37354882  0.51118486  0.16112922    -0.13100
C1097       C  0.36634401  0.23158156  0.12495555    -0.11500
C1098       C  0.37101833  0.26264745  0.12970051    -0.13100
C1099       C  0.23094805  0.35892303  0.13273421    -0.11500
C1100       C  0.26192805  0.36378371  0.13765159    -0.13100
C1101       C  0.40386827  0.29948228  0.28292808    -0.11500
C1102       C  0.40312007  0.27874839  0.30688438    -0.13100
C1103       C  0.15822102  0.48286450  0.37659388    -0.11500
C1104       C  0.15721710  0.51456959  0.37691481    -0.13100
C1105       C  0.12635407  0.37144644  0.26487065    -0.11500
C1106       C  0.12175414  0.36680074  0.23378220    -0.13100
C1107       C  0.13396020  0.26242735  0.36600703    -0.11500
C1108       C  0.12911823  0.23145571  0.36102807    -0.13100
C1109       C  0.29824759  0.28008166  0.40668207    -0.11500
C1110       C  0.27748846  0.30402047  0.40606591    -0.13100
C1111       C  0.27946634  0.40415547  0.30169697    -0.11500
C1112       C  0.30350948  0.40358645  0.28104810    -0.13100
C1113       C  0.51038426  0.62021763  0.16080099    -0.11500
C1114       C  0.47868484  0.61979137  0.15968181    -0.13100
C1115       C  0.68878589  0.59083244  0.28083932    -0.11500
C1116       C  0.71273958  0.59007500  0.30159140    -0.13100
C1117       C  0.51397457  0.83679130  0.37647831    -0.11500
C1118       C  0.48227934  0.83555307  0.37616192    -0.13100
C1119       C  0.58890711  0.69536704  0.28239957    -0.11500
C1120       C  0.58961286  0.71605180  0.30641089    -0.13100
C1121       C  0.69400461  0.71416704  0.40661965    -0.11500
C1122       C  0.71466792  0.69013235  0.40598856    -0.13100
C1123       C  0.62673490  0.76301612  0.12462369    -0.11500
C1124       C  0.62202044  0.73194653  0.12927835    -0.13100
C1125       C  0.62967761  0.85935447  0.26457959    -0.11500
C1126       C  0.63460113  0.86423641  0.23361311    -0.13100
C1127       C  0.98224409  0.65892983  0.12221630    -0.11500
C1128       C  0.01393947  0.65770216  0.12189804    -0.13100
C1129       C  0.80391466  0.77909567  0.09253481    -0.11500
C1130       C  0.77993681  0.79982190  0.09179688    -0.13100
C1131       C  0.76180357  0.63563692  0.13243121    -0.11500
C1132       C  0.73083981  0.63071061  0.13732140    -0.13100
C1133       C  0.86590655  0.62289376  0.26481198    -0.11500
C1134       C  0.87059618  0.62759416  0.23374664    -0.13100
C1135       C  0.97868969  0.87455507  0.33872474    -0.11500
C1136       C  0.01038883  0.87413350  0.33762722    -0.13100
C1137       C  0.90384374  0.78062911  0.19711246    -0.11500
C1138       C  0.90314939  0.80461556  0.21782095    -0.13100
C1139       C  0.79875186  0.90477762  0.21589034    -0.11500
C1140       C  0.77806537  0.90415145  0.19187280    -0.13100
C1141       C  0.76187812  0.87187531  0.36900675    -0.11500
C1142       C  0.73079304  0.86727519  0.37365299    -0.13100
C1143       C  0.86300903  0.76274239  0.36114046    -0.11500
C1144       C  0.85810566  0.73177688  0.36604918    -0.13100
C1145       C  0.51032729  0.15919760  0.37649345    -0.11500
C1146       C  0.47863158  0.15796613  0.37684318    -0.13100
C1147       C  0.61890545  0.51514982  0.15995984    -0.11500
C1148       C  0.61929385  0.48345135  0.16114218    -0.13100
C1149       C  0.48236252  0.37462458  0.16148502    -0.11500
C1150       C  0.51405962  0.37504231  0.16029255    -0.13100
C1151       C  0.58967437  0.30488312  0.28092648    -0.11500
C1152       C  0.58895014  0.28085524  0.30158748    -0.13100
C1153       C  0.65701728  0.97981632  0.12167153    -0.11500
C1154       C  0.65801843  0.01151655  0.12202699    -0.13100
C1155       C  0.62165970  0.12766573  0.26475296    -0.11500
C1156       C  0.62624467  0.12302426  0.23365927    -0.13100
C1157       C  0.63414983  0.23198793  0.13242961    -0.11500
C1158       C  0.62930882  0.26296525  0.13737732    -0.13100
C1159       C  0.01387874  0.11935246  0.33830623    -0.11500
C1160       C  0.98217723  0.11973496  0.33723250    -0.13100
C1161       C  0.87347703  0.98313621  0.33762067    -0.11500
C1162       C  0.87371520  0.01483285  0.33873871    -0.13100
C1163       C  0.77922360  0.09004102  0.19724136    -0.11500
C1164       C  0.80322825  0.09063144  0.21793206    -0.13100
C1165       C  0.73076234  0.13547056  0.36611238    -0.11500
C1166       C  0.76174671  0.13055241  0.36128526    -0.13100
C1167       C  0.83554915  0.47965256  0.37684672    -0.11500
C1168       C  0.83431128  0.51135296  0.37651187    -0.13100
C1169       C  0.69440536  0.40471505  0.28252476    -0.11500
C1170       C  0.71508523  0.40400364  0.30653165    -0.13100
C1171       C  0.87087358  0.23168841  0.36910159    -0.11500
C1172       C  0.86626341  0.26277636  0.37378318    -0.13100
C1173       C  0.71308408  0.29949902  0.40659819    -0.11500
C1174       C  0.68904667  0.27884719  0.40593999    -0.13100
C1175       C  0.01048576  0.33532375  0.12199680    -0.11500
C1176       C  0.97878433  0.33642473  0.12170494    -0.13100
C1177       C  0.79854933  0.21392924  0.09200922    -0.11500
C1178       C  0.77777516  0.19000495  0.09268731    -0.13100
C1179       C  0.90367796  0.19479664  0.21596072    -0.11500
C1180       C  0.90307671  0.21550640  0.19197539    -0.13100
C1181       C  0.86335492  0.35908404  0.23386835    -0.11500
C1182       C  0.85846801  0.36401096  0.26484275    -0.13100
C1183       C  0.73087652  0.37166057  0.12955699    -0.11500
C1184       C  0.76196008  0.36694145  0.12495535    -0.13100
C1185       C  0.61887270  0.83702055  0.51671225    -0.11500
C1186       C  0.61915459  0.83585707  0.48501135    -0.13100
C1187       C  0.58908695  0.71428326  0.69676553    -0.11500
C1188       C  0.58966549  0.69029017  0.71747764    -0.13100
C1189       C  0.83560157  0.61987929  0.48163252    -0.11500
C1190       C  0.83454949  0.62028328  0.51333334    -0.13100
C1191       C  0.71326228  0.69555574  0.59177001    -0.11500
C1192       C  0.68929055  0.71628080  0.59238811    -0.13100
C1193       C  0.71470130  0.59095895  0.69179941    -0.11500
C1194       C  0.69397177  0.59022463  0.71576279    -0.13100
C1195       C  0.65824977  0.87467104  0.01322674    -0.11500
C1196       C  0.65699520  0.87497100  0.98153327    -0.13100
C1197       C  0.62639181  0.87196478  0.76469326    -0.11500
C1198       C  0.62179104  0.86736772  0.73359450    -0.13100
C1199       C  0.62936427  0.73194838  0.86109481    -0.11500
C1200       C  0.63423761  0.76292731  0.86598340    -0.13100
C1201       C  0.87377272  0.65813504  0.01696861    -0.11500
C1202       C  0.87337080  0.65929622  0.98527300    -0.13100
C1203       C  0.86311876  0.63570203  0.76479273    -0.11500
C1204       C  0.85823383  0.63077604  0.73382027    -0.13100
C1205       C  0.73070250  0.62300023  0.86886171    -0.11500
C1206       C  0.76177524  0.62765542  0.87357368    -0.13100
C1207       C  0.79822769  0.78073924  0.90669664    -0.11500
C1208       C  0.77754460  0.80474261  0.90597475    -0.13100
C1209       C  0.86622005  0.73198931  0.62493253    -0.11500
C1210       C  0.87084236  0.76306946  0.62961518    -0.13100
C1211       C  0.90356689  0.79983293  0.78278524    -0.11500
C1212       C  0.90284844  0.77915514  0.80679438    -0.13100
C1213       C  0.76187632  0.86452617  0.63736225    -0.11500
C1214       C  0.73089430  0.85970090  0.63241591    -0.13100
C1215       C  0.80352975  0.90425757  0.78080988    -0.11500
C1216       C  0.77948730  0.90486378  0.80145692    -0.13100
C1217       C  0.15725886  0.61952231  0.51696042    -0.11500
C1218       C  0.15845677  0.61980398  0.48526099    -0.13100
C1219       C  0.47873259  0.83658028  0.62151024    -0.11500
C1220       C  0.51043875  0.83558873  0.62182407    -0.13100
C1221       C  0.37356734  0.83508061  0.51319167    -0.11500
C1222       C  0.37391824  0.83623478  0.48149292    -0.13100
C1223       C  0.29871870  0.71366104  0.59194691    -0.11500
C1224       C  0.27798278  0.68969948  0.59265861    -0.13100
C1225       C  0.48217613  0.62019880  0.83750662    -0.11500
C1226       C  0.51387857  0.61991652  0.83853919    -0.13100
C1227       C  0.30347040  0.59064272  0.71801235    -0.11500
C1228       C  0.27945193  0.58995047  0.69734619    -0.13100
C1229       C  0.40320704  0.71564568  0.69198322    -0.11500
C1230       C  0.40380312  0.69500024  0.71602431    -0.13100
C1231       C  0.01400570  0.87492601  0.66009738    -0.11500
C1232       C  0.98230869  0.87462685  0.66129475    -0.13100
C1233       C  0.12942822  0.76274785  0.63734940    -0.11500
C1234       C  0.13435593  0.73178473  0.63240857    -0.13100
C1235       C  0.26187318  0.86674775  0.62478369    -0.11500
C1236       C  0.23079714  0.87145040  0.62944051    -0.13100
C1237       C  0.11902894  0.65904032  0.01336690    -0.11500
C1238       C  0.11869738  0.65806864  0.98166185    -0.13100
C1239       C  0.97854364  0.65841958  0.87694210    -0.11500
C1240       C  0.01024460  0.65953981  0.87660455    -0.13100
C1241       C  0.12635807  0.62310290  0.73374114    -0.11500
C1242       C  0.12169668  0.62783869  0.76481078    -0.13100
C1243       C  0.26169149  0.63073175  0.86121173    -0.11500
C1244       C  0.23070870  0.63565445  0.86606854    -0.13100
C1245       C  0.08954395  0.80494829  0.78095608    -0.11500
C1246       C  0.08882563  0.78099860  0.80170331    -0.13100
C1247       C  0.33545343  0.87481242  0.01680587    -0.11500
C1248       C  0.33442512  0.87456126  0.98510132    -0.13100
C1249       C  0.21303849  0.79975193  0.90658828    -0.11500
C1250       C  0.18901640  0.77907873  0.90599284    -0.13100
C1251       C  0.21500764  0.90407434  0.80633702    -0.11500
C1252       C  0.19429471  0.90472157  0.78235852    -0.13100
C1253       C  0.36617800  0.76291169  0.87377776    -0.11500
C1254       C  0.37081447  0.73182473  0.86916315    -0.13100
C1255       C  0.36326828  0.85907892  0.73365762    -0.11500
C1256       C  0.35839417  0.86401309  0.76463553    -0.13100
C1257       C  0.37377175  0.15780091  0.51687338    -0.11500
C1258       C  0.37338854  0.15881000  0.48517498    -0.13100
C1259       C  0.15690677  0.47960891  0.62192208    -0.11500
C1260       C  0.15804650  0.51130523  0.62229007    -0.13100
C1261       C  0.15671089  0.37452124  0.48171228    -0.11500
C1262       C  0.15787814  0.37431260  0.51340967    -0.13100
C1263       C  0.30355077  0.27883696  0.59249119    -0.11500
C1264       C  0.27952987  0.29951716  0.59184477    -0.13100
C1265       C  0.37346412  0.48328599  0.83741802    -0.11500
C1266       C  0.37375056  0.51498435  0.83861282    -0.13100
C1267       C  0.29855854  0.40462735  0.71587500    -0.11500
C1268       C  0.27781675  0.40392937  0.69190995    -0.13100
C1269       C  0.40376475  0.28075069  0.69682667    -0.11500
C1270       C  0.40309402  0.30472651  0.71755703    -0.13100
C1271       C  0.11898283  0.33662841  0.01690823    -0.11500
C1272       C  0.11927975  0.33552440  0.98520679    -0.13100
C1273       C  0.23083334  0.36713842  0.87361461    -0.11500
C1274       C  0.26191220  0.37177024  0.86893642    -0.13100
C1275       C  0.12945187  0.35920626  0.76477752    -0.11500
C1276       C  0.13432995  0.36407484  0.73380340    -0.13100
C1277       C  0.33464965  0.12011821  0.01325071    -0.11500
C1278       C  0.33579174  0.11982618  0.98155240    -0.13100
C1279       C  0.33464422  0.01146163  0.87631044    -0.11500
C1280       C  0.33576187  0.97976007  0.87662414    -0.13100
C1281       C  0.19422130  0.21407252  0.90660662    -0.11500
C1282       C  0.21493403  0.19008591  0.90591252    -0.13100
C1283       C  0.35839227  0.23190449  0.86605384    -0.11500
C1284       C  0.36327514  0.26287140  0.86113483    -0.13100
C1285       C  0.36628224  0.12303101  0.76475640    -0.11500
C1286       C  0.37092781  0.12768405  0.73367861    -0.13100
C1287       C  0.11898427  0.01494476  0.65983190    -0.11500
C1288       C  0.11930740  0.98324453  0.66092951    -0.13100
C1289       C  0.12643699  0.26282268  0.62476283    -0.11500
C1290       C  0.12183004  0.23174013  0.62940139    -0.13100
C1291       C  0.26191940  0.13543173  0.63241736    -0.11500
C1292       C  0.23094367  0.13055043  0.63729292    -0.13100
C1293       C  0.08908572  0.19500063  0.78261391    -0.11500
C1294       C  0.08975098  0.21571004  0.80660940    -0.13100
C1295       C  0.18923041  0.09067571  0.78067936    -0.11500
C1296       C  0.21322020  0.09002976  0.80138893    -0.13100
C1297       C  0.48232341  0.15921604  0.62195208    -0.11500
C1298       C  0.51402537  0.15805100  0.62166871    -0.13100
C1299       C  0.61920917  0.15926470  0.51332029    -0.11500
C1300       C  0.61883892  0.15813423  0.48161902    -0.13100
C1301       C  0.83548554  0.51521581  0.62177745    -0.11500
C1302       C  0.83434786  0.48351654  0.62212313    -0.13100
C1303       C  0.83559939  0.37493298  0.51701991    -0.11500
C1304       C  0.83450280  0.37452158  0.48531749    -0.13100
C1305       C  0.69409663  0.28074260  0.59200392    -0.11500
C1306       C  0.71474669  0.30478236  0.59266144    -0.13100
C1307       C  0.61872887  0.47981557  0.83833153    -0.11500
C1308       C  0.61902523  0.51151609  0.83713196    -0.13100
C1309       C  0.47872011  0.37488591  0.83856999    -0.11500
C1310       C  0.51042197  0.37453559  0.83749422    -0.13100
C1311       C  0.58898217  0.29952852  0.71602866    -0.11500
C1312       C  0.58962880  0.27882480  0.69203721    -0.13100
C1313       C  0.68883559  0.40426519  0.71767588    -0.11500
C1314       C  0.71282219  0.40499996  0.69697488    -0.13100
C1315       C  0.97883347  0.11989935  0.65994396    -0.11500
C1316       C  0.01053519  0.12015752  0.66105229    -0.13100
C1317       C  0.87396495  0.97989157  0.66004038    -0.11500
C1318       C  0.87364928  0.01159059  0.66113192    -0.13100
C1319       C  0.76199036  0.12304517  0.62961612    -0.11500
C1320       C  0.73090511  0.12765296  0.62493155    -0.13100
C1321       C  0.86310299  0.23208448  0.63755899    -0.11500
C1322       C  0.85814202  0.26305466  0.63268044    -0.13100
C1323       C  0.65702545  0.11989603  0.01688049    -0.11500
C1324       C  0.65821197  0.12020334  0.98518480    -0.13100
C1325       C  0.65797468  0.98336697  0.87636004    -0.11500
C1326       C  0.65690879  0.01506366  0.87672177    -0.13100
C1327       C  0.63453998  0.13055179  0.76475617    -0.11500
C1328       C  0.62960218  0.13542231  0.73378534    -0.13100
C1329       C  0.62681576  0.23192216  0.87368066    -0.11500
C1330       C  0.62212004  0.26300160  0.86905097    -0.13100
C1331       C  0.79880304  0.08997164  0.78267521    -0.11500
C1332       C  0.77806709  0.09056879  0.80664518    -0.13100
C1333       C  0.87355293  0.33526906  0.01340741    -0.11500
C1334       C  0.87388656  0.33642965  0.98171124    -0.13100
C1335       C  0.01403596  0.33665320  0.87682795    -0.11500
C1336       C  0.98233750  0.33553244  0.87651972    -0.13100
C1337       C  0.77988319  0.19492948  0.90666431    -0.11500
C1338       C  0.80387455  0.21563341  0.90597995    -0.13100
C1339       C  0.90395775  0.21412418  0.80149464    -0.11500
C1340       C  0.90330545  0.19013545  0.78079678    -0.13100
C1341       C  0.87074524  0.36720098  0.76494780    -0.11500
C1342       C  0.86601704  0.37193861  0.73388858    -0.13100
C1343       C  0.76188521  0.35919591  0.86609048    -0.11500
C1344       C  0.73092862  0.36418691  0.86115453    -0.13100
loop_ 
_geom_bond_atom_site_label_1 
_geom_bond_atom_site_label_2 
_geom_bond_distance 
_geom_bond_site_symmetry_2 
_ccdc_geom_bond_type 
O1           C16   1.259       .  A
O1           Al9   1.916       .  S
C2           O12   1.260       .  A
C2            O3   1.259       .  A
C2         C1338   1.432       .  S
O3           Al5   1.902       .  S
O4            C6   1.256       .  A
O4           Al5   1.878       .  S
Al5          O13   1.890       .  S
Al5          O15   1.896       .  S
Al5          O14   1.776       .  S
C6           O19   1.266       .  A
C6         C1343   1.435       .  S
O7           C17   1.259       .  A
O7           Al9   1.905       .  S
O8           C21   1.260       .  A
O8          Al18   1.885       .  S
Al9          O22   1.929       .  S
Al9          O19   1.939       .  S
Al9          O14   1.792       .  S
O10          C17   1.258       .  A
O10         Al18   1.903       .  S
O11          C20   1.262       .  A
O11         Al18   1.927       .  S
O12         Al18   1.912       .  S
O13          C20   1.258       .  A
O14         Al18   1.788       .  S
O15          C16   1.257       .  A
C16        C1341   1.437       .  S
C17        C1334   1.434       .  S
C20        C1339   1.433       .  S
C21          O22   1.265       .  A
C21        C1336   1.434       .  S
O23          C38   1.259       .  A
O23         Al31   1.916       .  S
C24          O34   1.260       .  A
C24          O25   1.258       .  A
C24        C1332   1.432       .  S
O25         Al27   1.901       .  S
O26          C28   1.256       .  A
O26         Al27   1.878       .  S
Al27         O35   1.890       .  S
Al27         O37   1.896       .  S
Al27         O36   1.777       .  S
C28          O41   1.266       .  A
C28        C1327   1.435       .  S
O29          C39   1.259       .  A
O29         Al31   1.905       .  S
O30          C43   1.260       .  A
O30         Al40   1.886       .  S
Al31         O44   1.928       .  S
Al31         O41   1.939       .  S
Al31         O36   1.792       .  S
O32          C39   1.258       .  A
O32         Al40   1.903       .  S
O33          C42   1.262       .  A
O33         Al40   1.928       .  S
O34         Al40   1.913       .  S
O35          C42   1.258       .  A
O36         Al40   1.788       .  S
O37          C38   1.257       .  A
C38        C1329   1.437       .  S
C39        C1326   1.434       .  S
C42        C1337   1.433       .  S
C43          O44   1.265       .  A
C43        C1324   1.434       .  S
O45          C60   1.259       .  A
O45         Al53   1.916       .  S
C46          O56   1.260       .  A
C46          O47   1.259       .  A
C46        C1340   1.431       .  S
O47         Al49   1.901       .  S
O48          C50   1.256       .  A
O48         Al49   1.877       .  S
Al49         O57   1.890       .  S
Al49         O59   1.896       .  S
Al49         O58   1.776       .  S
C50          O63   1.266       .  A
C50        C1321   1.435       .  S
O51          C61   1.259       .  A
O51         Al53   1.905       .  S
O52          C65   1.260       .  A
O52         Al62   1.885       .  S
Al53         O66   1.929       .  S
Al53         O63   1.940       .  S
Al53         O58   1.791       .  S
O54          C61   1.258       .  A
O54         Al62   1.903       .  S
O55          C64   1.262       .  A
O55         Al62   1.928       .  S
O56         Al62   1.912       .  S
O57          C64   1.258       .  A
O58         Al62   1.788       .  S
O59          C60   1.257       .  A
C60        C1319   1.437       .  S
C61        C1315   1.434       .  S
C64        C1331   1.433       .  S
C65          O66   1.265       .  A
C65        C1318   1.434       .  S
O67          C82   1.259       .  A
O67         Al75   1.916       .  S
C68          O78   1.260       .  A
C68          O69   1.259       .  A
C68        C1313   1.432       .  S
O69         Al71   1.902       .  S
O70          C72   1.256       .  A
O70         Al71   1.878       .  S
Al71         O79   1.890       .  S
Al71         O81   1.896       .  S
Al71         O80   1.776       .  S
C72          O85   1.266       .  A
C72        C1344   1.435       .  S
O73          C83   1.259       .  A
O73         Al75   1.906       .  S
O74          C87   1.260       .  A
O74         Al84   1.885       .  S
Al75         O88   1.929       .  S
Al75         O85   1.939       .  S
Al75         O80   1.792       .  S
O76          C83   1.258       .  A
O76         Al84   1.903       .  S
O77          C86   1.262       .  A
O77         Al84   1.928       .  S
O78         Al84   1.912       .  S
O79          C86   1.258       .  A
O80         Al84   1.787       .  S
O81          C82   1.257       .  A
C82        C1330   1.437       .  S
C83        C1307   1.434       .  S
C86        C1311   1.433       .  S
C87          O88   1.265       .  A
C87        C1310   1.434       .  S
O89         C104   1.259       .  A
O89         Al97   1.916       .  S
C90         O100   1.260       .  A
C90          O91   1.258       .  A
C90        C1306   1.432       .  S
O91         Al93   1.901       .  S
O92          C94   1.256       .  A
O92         Al93   1.878       .  S
Al93        O101   1.890       .  S
Al93        O103   1.896       .  S
Al93        O102   1.777       .  S
C94         O107   1.266       .  A
C94        C1322   1.435       .  S
O95         C105   1.259       .  A
O95         Al97   1.905       .  S
O96         C109   1.260       .  A
O96        Al106   1.886       .  S
Al97        O110   1.929       .  S
Al97        O107   1.939       .  S
Al97        O102   1.792       .  S
O98         C105   1.258       .  A
O98        Al106   1.903       .  S
O99         C108   1.262       .  A
O99        Al106   1.928       .  S
O100       Al106   1.912       .  S
O101        C108   1.258       .  A
O102       Al106   1.788       .  S
O103        C104   1.256       .  A
C104       C1342   1.437       .  S
C105       C1303   1.434       .  S
C108       C1314   1.433       .  S
C109        O110   1.265       .  A
C109       C1302   1.435       .  S
O111        C126   1.259       .  A
O111       Al119   1.916       .  S
C112        O122   1.260       .  A
C112        O113   1.258       .  A
C112       C1312   1.432       .  S
O113       Al115   1.901       .  S
O114        C116   1.256       .  A
O114       Al115   1.877       .  S
Al115       O123   1.890       .  S
Al115       O125   1.896       .  S
Al115       O124   1.777       .  S
C116        O129   1.266       .  A
C116       C1328   1.435       .  S
O117        C127   1.259       .  A
O117       Al119   1.906       .  S
O118        C131   1.260       .  A
O118       Al128   1.886       .  S
Al119       O132   1.929       .  S
Al119       O129   1.939       .  S
Al119       O124   1.792       .  S
O120        C127   1.258       .  A
O120       Al128   1.903       .  S
O121        C130   1.262       .  A
O121       Al128   1.928       .  S
O122       Al128   1.912       .  S
O123        C130   1.258       .  A
O124       Al128   1.788       .  S
O125        C126   1.256       .  A
C126       C1320   1.437       .  S
C127       C1298   1.434       .  S
C130       C1305   1.433       .  S
C131        O132   1.265       .  A
C131       C1299   1.435       .  S
O133        C148   1.259       .  A
O133       Al141   1.915       .  S
C134        O144   1.260       .  A
C134        O135   1.259       .  A
C134       C1295   1.432       .  S
O135       Al137   1.901       .  S
O136        C138   1.256       .  A
O136       Al137   1.877       .  S
Al137       O145   1.890       .  S
Al137       O147   1.896       .  S
Al137       O146   1.777       .  S
C138        O151   1.266       .  A
C138       C1292   1.435       .  S
O139        C149   1.259       .  A
O139       Al141   1.905       .  S
O140        C153   1.260       .  A
O140       Al150   1.886       .  S
Al141       O154   1.929       .  S
Al141       O151   1.939       .  S
Al141       O146   1.792       .  S
O142        C149   1.258       .  A
O142       Al150   1.904       .  S
O143        C152   1.262       .  A
O143       Al150   1.928       .  S
O144       Al150   1.912       .  S
O145        C152   1.258       .  A
O146       Al150   1.788       .  S
O147        C148   1.257       .  A
C148       C1290   1.437       .  S
C149       C1287   1.434       .  S
C152       C1293   1.433       .  S
C153        O154   1.265       .  A
C153       C1316   1.434       .  S
O155        C170   1.259       .  A
O155       Al163   1.916       .  S
C156        O166   1.260       .  A
C156        O157   1.259       .  A
C156       C1282   1.432       .  S
O157       Al159   1.902       .  S
O158        C160   1.256       .  A
O158       Al159   1.877       .  S
Al159       O167   1.890       .  S
Al159       O169   1.896       .  S
Al159       O168   1.776       .  S
C160        O173   1.266       .  A
C160       C1283   1.435       .  S
O161        C171   1.259       .  A
O161       Al163   1.905       .  S
O162        C175   1.260       .  A
O162       Al172   1.886       .  S
Al163       O176   1.929       .  S
Al163       O173   1.939       .  S
Al163       O168   1.792       .  S
O164        C171   1.258       .  A
O164       Al172   1.903       .  S
O165        C174   1.262       .  A
O165       Al172   1.928       .  S
O166       Al172   1.912       .  S
O167        C174   1.258       .  A
O168       Al172   1.787       .  S
O169        C170   1.257       .  A
C170       C1285   1.437       .  S
C171       C1278   1.434       .  S
C174       C1296   1.433       .  S
C175        O176   1.265       .  A
C175       C1279   1.435       .  S
O177        C192   1.259       .  A
O177       Al185   1.916       .  S
C178        O188   1.260       .  A
C178        O179   1.258       .  A
C178       C1294   1.432       .  S
O179       Al181   1.901       .  S
O180        C182   1.256       .  A
O180       Al181   1.877       .  S
Al181       O189   1.890       .  S
Al181       O191   1.896       .  S
Al181       O190   1.776       .  S
C182        O195   1.266       .  A
C182       C1275   1.435       .  S
O183        C193   1.259       .  A
O183       Al185   1.905       .  S
O184        C197   1.260       .  A
O184       Al194   1.886       .  S
Al185       O198   1.929       .  S
Al185       O195   1.939       .  S
Al185       O190   1.792       .  S
O186        C193   1.258       .  A
O186       Al194   1.903       .  S
O187        C196   1.262       .  A
O187       Al194   1.928       .  S
O188       Al194   1.913       .  S
O189        C196   1.258       .  A
O190       Al194   1.787       .  S
O191        C192   1.256       .  A
C192       C1273   1.437       .  S
C193       C1335   1.434       .  S
C196       C1281   1.433       .  S
C197        O198   1.265       .  A
C197       C1272   1.435       .  S
O199        C214   1.259       .  A
O199       Al207   1.915       .  S
C200        O210   1.260       .  A
C200        O201   1.258       .  A
C200       C1270   1.432       .  S
O201       Al203   1.901       .  S
O202        C204   1.256       .  A
O202       Al203   1.877       .  S
Al203       O211   1.890       .  S
Al203       O213   1.896       .  S
Al203       O212   1.777       .  S
C204        O217   1.266       .  A
C204       C1284   1.435       .  S
O205        C215   1.259       .  A
O205       Al207   1.905       .  S
O206        C219   1.260       .  A
O206       Al216   1.886       .  S
Al207       O220   1.929       .  S
Al207       O217   1.939       .  S
Al207       O212   1.792       .  S
O208        C215   1.258       .  A
O208       Al216   1.904       .  S
O209        C218   1.262       .  A
O209       Al216   1.928       .  S
O210       Al216   1.913       .  S
O211        C218   1.258       .  A
O212       Al216   1.788       .  S
O213        C214   1.257       .  A
C214       C1274   1.437       .  S
C215       C1309   1.434       .  S
C218       C1267   1.433       .  S
C219        O220   1.265       .  A
C219       C1265   1.435       .  S
O221        C236   1.259       .  A
O221       Al229   1.915       .  S
C222        O232   1.260       .  A
C222        O223   1.259       .  A
C222       C1268   1.432       .  S
O223       Al225   1.902       .  S
O224        C226   1.256       .  A
O224       Al225   1.877       .  S
Al225       O233   1.890       .  S
Al225       O235   1.896       .  S
Al225       O234   1.776       .  S
C226        O239   1.266       .  A
C226       C1276   1.435       .  S
O227        C237   1.259       .  A
O227       Al229   1.905       .  S
O228        C241   1.260       .  A
O228       Al238   1.886       .  S
Al229       O242   1.929       .  S
Al229       O239   1.938       .  S
Al229       O234   1.792       .  S
O230        C237   1.258       .  A
O230       Al238   1.904       .  S
O231        C240   1.262       .  A
O231       Al238   1.928       .  S
O232       Al238   1.912       .  S
O233        C240   1.258       .  A
O234       Al238   1.787       .  S
O235        C236   1.257       .  A
C236       C1289   1.437       .  S
C237       C1259   1.434       .  S
C240       C1264   1.433       .  S
C241        O242   1.265       .  A
C241       C1262   1.434       .  S
O243        C258   1.259       .  A
O243       Al251   1.915       .  S
C244        O254   1.260       .  A
C244        O245   1.258       .  A
C244       C1263   1.432       .  S
O245       Al247   1.901       .  S
O246        C248   1.256       .  A
O246       Al247   1.877       .  S
Al247       O255   1.890       .  S
Al247       O257   1.896       .  S
Al247       O256   1.776       .  S
C248        O261   1.266       .  A
C248       C1291   1.435       .  S
O249        C259   1.259       .  A
O249       Al251   1.905       .  S
O250        C263   1.260       .  A
O250       Al260   1.886       .  S
Al251       O264   1.929       .  S
Al251       O261   1.939       .  S
Al251       O256   1.792       .  S
O252        C259   1.258       .  A
O252       Al260   1.904       .  S
O253        C262   1.262       .  A
O253       Al260   1.929       .  S
O254       Al260   1.913       .  S
O255        C262   1.258       .  A
O256       Al260   1.787       .  S
O257        C258   1.257       .  A
C258       C1286   1.437       .  S
C259       C1257   1.434       .  S
C262       C1269   1.433       .  S
C263        O264   1.265       .  A
C263       C1297   1.435       .  S
O265        C280   1.259       .  A
O265       Al273   1.916       .  S
C266        O276   1.260       .  A
C266        O267   1.259       .  A
C266       C1251   1.431       .  S
O267       Al269   1.901       .  S
O268        C270   1.256       .  A
O268       Al269   1.877       .  S
Al269       O277   1.890       .  S
Al269       O279   1.896       .  S
Al269       O278   1.777       .  S
C270        O283   1.266       .  A
C270       C1256   1.435       .  S
O271        C281   1.259       .  A
O271       Al273   1.906       .  S
O272        C285   1.260       .  A
O272       Al282   1.885       .  S
Al273       O286   1.930       .  S
Al273       O283   1.940       .  S
Al273       O278   1.792       .  S
O274        C281   1.258       .  A
O274       Al282   1.903       .  S
O275        C284   1.262       .  A
O275       Al282   1.928       .  S
O276       Al282   1.912       .  S
O277        C284   1.258       .  A
O278       Al282   1.788       .  S
O279        C280   1.256       .  A
C280       C1253   1.437       .  S
C281       C1280   1.434       .  S
C284       C1249   1.433       .  S
C285        O286   1.265       .  A
C285       C1248   1.435       .  S
O287        C302   1.259       .  A
O287       Al295   1.916       .  S
C288        O298   1.260       .  A
C288        O289   1.258       .  A
C288       C1250   1.432       .  S
O289       Al291   1.901       .  S
O290        C292   1.256       .  A
O290       Al291   1.878       .  S
Al291       O299   1.890       .  S
Al291       O301   1.896       .  S
Al291       O300   1.777       .  S
C292        O305   1.266       .  A
C292       C1244   1.435       .  S
O293        C303   1.259       .  A
O293       Al295   1.905       .  S
O294        C307   1.260       .  A
O294       Al304   1.886       .  S
Al295       O308   1.929       .  S
Al295       O305   1.939       .  S
Al295       O300   1.792       .  S
O296        C303   1.258       .  A
O296       Al304   1.904       .  S
O297        C306   1.262       .  A
O297       Al304   1.928       .  S
O298       Al304   1.912       .  S
O299        C306   1.258       .  A
O300       Al304   1.788       .  S
O301        C302   1.256       .  A
C302       C1242   1.437       .  S
C303       C1238   1.434       .  S
C306       C1246   1.433       .  S
C307        O308   1.265       .  A
C307       C1240   1.434       .  S
O309        C324   1.259       .  A
O309       Al317   1.916       .  S
C310        O320   1.260       .  A
C310        O311   1.259       .  A
C310       C1245   1.432       .  S
O311       Al313   1.902       .  S
O312        C314   1.256       .  A
O312       Al313   1.878       .  S
Al313       O321   1.890       .  S
Al313       O323   1.896       .  S
Al313       O322   1.776       .  S
C314        O327   1.266       .  A
C314       C1233   1.435       .  S
O315        C325   1.259       .  A
O315       Al317   1.905       .  S
O316        C329   1.259       .  A
O316       Al326   1.885       .  S
Al317       O330   1.929       .  S
Al317       O327   1.939       .  S
Al317       O322   1.792       .  S
O318        C325   1.258       .  A
O318       Al326   1.903       .  S
O319        C328   1.262       .  A
O319       Al326   1.927       .  S
O320       Al326   1.912       .  S
O321        C328   1.258       .  A
O322       Al326   1.787       .  S
O323        C324   1.257       .  A
C324       C1236   1.437       .  S
C325       C1231   1.434       .  S
C328       C1252   1.433       .  S
C329        O330   1.265       .  A
C329       C1288   1.434       .  S
O331        C346   1.259       .  A
O331       Al339   1.916       .  S
C332        O342   1.260       .  A
C332        O333   1.259       .  A
C332       C1227   1.431       .  S
O333       Al335   1.901       .  S
O334        C336   1.256       .  A
O334       Al335   1.877       .  S
Al335       O343   1.890       .  S
Al335       O345   1.896       .  S
Al335       O344   1.777       .  S
C336        O349   1.266       .  A
C336       C1243   1.435       .  S
O337        C347   1.259       .  A
O337       Al339   1.906       .  S
O338        C351   1.260       .  A
O338       Al348   1.885       .  S
Al339       O352   1.929       .  S
Al339       O349   1.939       .  S
Al339       O344   1.792       .  S
O340        C347   1.258       .  A
O340       Al348   1.903       .  S
O341        C350   1.262       .  A
O341       Al348   1.928       .  S
O342       Al348   1.912       .  S
O343        C350   1.258       .  A
O344       Al348   1.788       .  S
O345        C346   1.256       .  A
C346       C1254   1.437       .  S
C347       C1266   1.434       .  S
C350       C1230   1.433       .  S
C351        O352   1.265       .  A
C351       C1225   1.434       .  S
O353        C368   1.259       .  A
O353       Al361   1.916       .  S
C354        O364   1.260       .  A
C354        O355   1.258       .  A
C354       C1229   1.432       .  S
O355       Al357   1.901       .  S
O356        C358   1.256       .  A
O356       Al357   1.878       .  S
Al357       O365   1.890       .  S
Al357       O367   1.896       .  S
Al357       O366   1.777       .  S
C358        O371   1.266       .  A
C358       C1255   1.435       .  S
O359        C369   1.259       .  A
O359       Al361   1.905       .  S
O360        C373   1.260       .  A
O360       Al370   1.886       .  S
Al361       O374   1.929       .  S
Al361       O371   1.940       .  S
Al361       O366   1.792       .  S
O362        C369   1.258       .  A
O362       Al370   1.904       .  S
O363        C372   1.262       .  A
O363       Al370   1.928       .  S
O364       Al370   1.913       .  S
O365        C372   1.258       .  A
O366       Al370   1.788       .  S
O367        C368   1.257       .  A
C368       C1235   1.437       .  S
C369       C1219   1.434       .  S
C372       C1223   1.433       .  S
C373        O374   1.265       .  A
C373       C1221   1.435       .  S
O375        C390   1.259       .  A
O375       Al383   1.916       .  S
C376        O386   1.260       .  A
C376        O377   1.259       .  A
C376       C1224   1.432       .  S
O377       Al379   1.901       .  S
O378        C380   1.256       .  A
O378       Al379   1.878       .  S
Al379       O387   1.890       .  S
Al379       O389   1.896       .  S
Al379       O388   1.776       .  S
C380        O393   1.266       .  A
C380       C1234   1.435       .  S
O381        C391   1.259       .  A
O381       Al383   1.906       .  S
O382        C395   1.260       .  A
O382       Al392   1.886       .  S
Al383       O396   1.929       .  S
Al383       O393   1.939       .  S
Al383       O388   1.792       .  S
O384        C391   1.258       .  A
O384       Al392   1.903       .  S
O385        C394   1.262       .  A
O385       Al392   1.927       .  S
O386       Al392   1.912       .  S
O387        C394   1.258       .  A
O388       Al392   1.788       .  S
O389        C390   1.257       .  A
C390       C1241   1.437       .  S
C391       C1217   1.434       .  S
C394       C1228   1.433       .  S
C395        O396   1.265       .  A
C395       C1260   1.434       .  S
O397        C412   1.259       .  A
O397       Al405   1.916       .  S
C398        O408   1.260       .  A
C398        O399   1.258       .  A
C398       C1215   1.432       .  S
O399       Al401   1.901       .  S
O400        C402   1.256       .  A
O400       Al401   1.878       .  S
Al401       O409   1.890       .  S
Al401       O411   1.896       .  S
Al401       O410   1.777       .  S
C402        O415   1.266       .  A
C402       C1213   1.435       .  S
O403        C413   1.259       .  A
O403       Al405   1.905       .  S
O404        C417   1.260       .  A
O404       Al414   1.886       .  S
Al405       O418   1.928       .  S
Al405       O415   1.939       .  S
Al405       O410   1.792       .  S
O406        C413   1.258       .  A
O406       Al414   1.903       .  S
O407        C416   1.262       .  A
O407       Al414   1.928       .  S
O408       Al414   1.913       .  S
O409        C416   1.258       .  A
O410       Al414   1.788       .  S
O411        C412   1.257       .  A
C412       C1210   1.437       .  S
C413       C1317   1.434       .  S
C416       C1211   1.433       .  S
C417        O418   1.265       .  A
C417       C1232   1.434       .  S
O419        C434   1.259       .  A
O419       Al427   1.916       .  S
C420        O430   1.260       .  A
C420        O421   1.259       .  A
C420       C1212   1.432       .  S
O421       Al423   1.901       .  S
O422        C424   1.256       .  A
O422       Al423   1.878       .  S
Al423       O431   1.890       .  S
Al423       O433   1.896       .  S
Al423       O432   1.776       .  S
C424        O437   1.266       .  A
C424       C1203   1.435       .  S
O425        C435   1.259       .  A
O425       Al427   1.905       .  S
O426        C439   1.260       .  A
O426       Al436   1.886       .  S
Al427       O440   1.929       .  S
Al427       O437   1.939       .  S
Al427       O432   1.792       .  S
O428        C435   1.258       .  A
O428       Al436   1.903       .  S
O429        C438   1.262       .  A
O429       Al436   1.928       .  S
O430       Al436   1.912       .  S
O431        C438   1.258       .  A
O432       Al436   1.788       .  S
O433        C434   1.257       .  A
C434       C1206   1.437       .  S
C435       C1239   1.434       .  S
C438       C1207   1.433       .  S
C439        O440   1.265       .  A
C439       C1202   1.434       .  S
O441        C456   1.259       .  A
O441       Al449   1.916       .  S
C442        O452   1.260       .  A
C442        O443   1.259       .  A
C442       C1208   1.431       .  S
O443       Al445   1.901       .  S
O444        C446   1.256       .  A
O444       Al445   1.877       .  S
Al445       O453   1.890       .  S
Al445       O455   1.896       .  S
Al445       O454   1.776       .  S
C446        O459   1.266       .  A
C446       C1200   1.435       .  S
O447        C457   1.259       .  A
O447       Al449   1.906       .  S
O448        C461   1.260       .  A
O448       Al458   1.885       .  S
Al449       O462   1.929       .  S
Al449       O459   1.939       .  S
Al449       O454   1.792       .  S
O450        C457   1.258       .  A
O450       Al458   1.903       .  S
O451        C460   1.262       .  A
O451       Al458   1.927       .  S
O452       Al458   1.912       .  S
O453        C460   1.258       .  A
O454       Al458   1.788       .  S
O455        C456   1.257       .  A
C456       C1197   1.437       .  S
C457       C1196   1.434       .  S
C460       C1216   1.433       .  S
C461        O462   1.265       .  A
C461       C1325   1.434       .  S
O463        C478   1.259       .  A
O463       Al471   1.916       .  S
C464        O474   1.260       .  A
C464        O465   1.259       .  A
C464       C1193   1.432       .  S
O465       Al467   1.902       .  S
O466        C468   1.256       .  A
O466       Al467   1.877       .  S
Al467       O475   1.890       .  S
Al467       O477   1.896       .  S
Al467       O476   1.776       .  S
C468        O481   1.266       .  A
C468       C1204   1.435       .  S
O469        C479   1.259       .  A
O469       Al471   1.905       .  S
O470        C483   1.259       .  A
O470       Al480   1.885       .  S
Al471       O484   1.929       .  S
Al471       O481   1.939       .  S
Al471       O476   1.792       .  S
O472        C479   1.258       .  A
O472       Al480   1.904       .  S
O473        C482   1.262       .  A
O473       Al480   1.928       .  S
O474       Al480   1.912       .  S
O475        C482   1.258       .  A
O476       Al480   1.787       .  S
O477        C478   1.257       .  A
C478       C1209   1.437       .  S
C479       C1301   1.434       .  S
C482       C1191   1.433       .  S
C483        O484   1.265       .  A
C483       C1190   1.434       .  S
O485        C500   1.259       .  A
O485       Al493   1.916       .  S
C486        O496   1.260       .  A
C486        O487   1.258       .  A
C486       C1188   1.432       .  S
O487       Al489   1.901       .  S
O488        C490   1.256       .  A
O488       Al489   1.877       .  S
Al489       O497   1.890       .  S
Al489       O499   1.896       .  S
Al489       O498   1.777       .  S
C490        O503   1.266       .  A
C490       C1199   1.435       .  S
O491        C501   1.259       .  A
O491       Al493   1.905       .  S
O492        C505   1.260       .  A
O492       Al502   1.886       .  S
Al493       O506   1.929       .  S
Al493       O503   1.939       .  S
Al493       O498   1.792       .  S
O494        C501   1.258       .  A
O494       Al502   1.903       .  S
O495        C504   1.262       .  A
O495       Al502   1.928       .  S
O496       Al502   1.913       .  S
O497        C504   1.258       .  A
O498       Al502   1.788       .  S
O499        C500   1.256       .  A
C500       C1205   1.437       .  S
C501       C1226   1.434       .  S
C504       C1194   1.433       .  S
C505        O506   1.265       .  A
C505       C1308   1.435       .  S
O507        C522   1.259       .  A
O507       Al515   1.916       .  S
C508        O518   1.260       .  A
C508        O509   1.259       .  A
C508       C1192   1.432       .  S
O509       Al511   1.901       .  S
O510        C512   1.256       .  A
O510       Al511   1.877       .  S
Al511       O519   1.890       .  S
Al511       O521   1.896       .  S
Al511       O520   1.777       .  S
C512        O525   1.266       .  A
C512       C1214   1.435       .  S
O513        C523   1.259       .  A
O513       Al515   1.906       .  S
O514        C527   1.260       .  A
O514       Al524   1.885       .  S
Al515       O528   1.929       .  S
Al515       O525   1.940       .  S
Al515       O520   1.792       .  S
O516        C523   1.258       .  A
O516       Al524   1.903       .  S
O517        C526   1.262       .  A
O517       Al524   1.928       .  S
O518       Al524   1.912       .  S
O519        C526   1.258       .  A
O520       Al524   1.788       .  S
O521        C522   1.256       .  A
C522       C1198   1.437       .  S
C523       C1185   1.434       .  S
C526       C1187   1.433       .  S
C527        O528   1.265       .  A
C527       C1220   1.434       .  S
O529        C544   1.259       .  A
O529       Al537   1.916       .  S
C530        O540   1.260       .  A
C530        O531   1.258       .  A
C530       C1180   1.432       .  S
O531       Al533   1.901       .  S
O532        C534   1.256       .  A
O532       Al533   1.878       .  S
Al533       O541   1.890       .  S
Al533       O543   1.896       .  S
Al533       O542   1.776       .  S
C534        O547   1.266       .  A
C534       C1181   1.435       .  S
O535        C545   1.259       .  A
O535       Al537   1.905       .  S
O536        C549   1.260       .  A
O536       Al546   1.886       .  S
Al537       O550   1.929       .  S
Al537       O547   1.939       .  S
Al537       O542   1.792       .  S
O538        C545   1.258       .  A
O538       Al546   1.903       .  S
O539        C548   1.262       .  A
O539       Al546   1.928       .  S
O540       Al546   1.912       .  S
O541        C548   1.258       .  A
O542       Al546   1.788       .  S
O543        C544   1.257       .  A
C544       C1184   1.437       .  S
C545       C1176   1.434       .  S
C548       C1177   1.433       .  S
C549        O550   1.265       .  A
C549       C1333   1.434       .  S
O551        C566   1.259       .  A
O551       Al559   1.917       .  S
C552        O562   1.260       .  A
C552        O553   1.259       .  A
C552       C1170   1.431       .  S
O553       Al555   1.901       .  S
O554        C556   1.256       .  A
O554       Al555   1.877       .  S
Al555       O563   1.890       .  S
Al555       O565   1.896       .  S
Al555       O564   1.777       .  S
C556        O569   1.266       .  A
C556       C1182   1.435       .  S
O557        C567   1.259       .  A
O557       Al559   1.906       .  S
O558        C571   1.260       .  A
O558       Al568   1.886       .  S
Al559       O572   1.930       .  S
Al559       O569   1.939       .  S
Al559       O564   1.792       .  S
O560        C567   1.258       .  A
O560       Al568   1.903       .  S
O561        C570   1.262       .  A
O561       Al568   1.928       .  S
O562       Al568   1.912       .  S
O563        C570   1.258       .  A
O564       Al568   1.788       .  S
O565        C566   1.256       .  A
C566       C1172   1.437       .  S
C567       C1167   1.434       .  S
C570       C1173   1.433       .  S
C571        O572   1.265       .  A
C571       C1304   1.435       .  S
O573        C588   1.259       .  A
O573       Al581   1.916       .  S
C574        O584   1.260       .  A
C574        O575   1.258       .  A
C574       C1164   1.432       .  S
O575       Al577   1.901       .  S
O576        C578   1.256       .  A
O576       Al577   1.877       .  S
Al577       O585   1.890       .  S
Al577       O587   1.896       .  S
Al577       O586   1.777       .  S
C578        O591   1.266       .  A
C578       C1166   1.435       .  S
O579        C589   1.259       .  A
O579       Al581   1.905       .  S
O580        C593   1.260       .  A
O580       Al590   1.885       .  S
Al581       O594   1.929       .  S
Al581       O591   1.939       .  S
Al581       O586   1.792       .  S
O582        C589   1.258       .  A
O582       Al590   1.903       .  S
O583        C592   1.262       .  A
O583       Al590   1.928       .  S
O584       Al590   1.912       .  S
O585        C592   1.258       .  A
O586       Al590   1.788       .  S
O587        C588   1.256       .  A
C588       C1171   1.437       .  S
C589       C1162   1.434       .  S
C592       C1179   1.433       .  S
C593        O594   1.265       .  A
C593       C1160   1.434       .  S
O595        C610   1.259       .  A
O595       Al603   1.916       .  S
C596        O606   1.260       .  A
C596        O597   1.259       .  A
C596       C1178   1.432       .  S
O597       Al599   1.901       .  S
O598        C600   1.256       .  A
O598       Al599   1.877       .  S
Al599       O607   1.890       .  S
Al599       O609   1.896       .  S
Al599       O608   1.776       .  S
C600        O613   1.266       .  A
C600       C1157   1.435       .  S
O601        C611   1.259       .  A
O601       Al603   1.905       .  S
O602        C615   1.259       .  A
O602       Al612   1.885       .  S
Al603       O616   1.929       .  S
Al603       O613   1.940       .  S
Al603       O608   1.792       .  S
O604        C611   1.258       .  A
O604       Al612   1.903       .  S
O605        C614   1.262       .  A
O605       Al612   1.928       .  S
O606       Al612   1.912       .  S
O607        C614   1.258       .  A
O608       Al612   1.787       .  S
O609        C610   1.257       .  A
C610       C1156   1.437       .  S
C611       C1323   1.434       .  S
C614       C1163   1.433       .  S
C615        O616   1.265       .  A
C615       C1154   1.434       .  S
O617        C632   1.259       .  A
O617       Al625   1.916       .  S
C618        O628   1.260       .  A
C618        O619   1.258       .  A
C618       C1151   1.432       .  S
O619       Al621   1.901       .  S
O620        C622   1.256       .  A
O620       Al621   1.878       .  S
Al621       O629   1.890       .  S
Al621       O631   1.896       .  S
Al621       O630   1.776       .  S
C622        O635   1.266       .  A
C622       C1158   1.435       .  S
O623        C633   1.259       .  A
O623       Al625   1.905       .  S
O624        C637   1.260       .  A
O624       Al634   1.886       .  S
Al625       O638   1.929       .  S
Al625       O635   1.939       .  S
Al625       O630   1.792       .  S
O626        C633   1.258       .  A
O626       Al634   1.903       .  S
O627        C636   1.262       .  A
O627       Al634   1.927       .  S
O628       Al634   1.912       .  S
O629        C636   1.258       .  A
O630       Al634   1.788       .  S
O631        C632   1.257       .  A
C632       C1183   1.437       .  S
C633       C1150   1.434       .  S
C636       C1169   1.433       .  S
C637        O638   1.265       .  A
C637       C1148   1.435       .  S
O639        C654   1.259       .  A
O639       Al647   1.916       .  S
C640        O650   1.260       .  A
C640        O641   1.258       .  A
C640       C1174   1.432       .  S
O641       Al643   1.901       .  S
O642        C644   1.256       .  A
O642       Al643   1.878       .  S
Al643       O651   1.890       .  S
Al643       O653   1.896       .  S
Al643       O652   1.777       .  S
C644        O657   1.266       .  A
C644       C1165   1.435       .  S
O645        C655   1.259       .  A
O645       Al647   1.905       .  S
O646        C659   1.260       .  A
O646       Al656   1.886       .  S
Al647       O660   1.928       .  S
Al647       O657   1.939       .  S
Al647       O652   1.792       .  S
O648        C655   1.258       .  A
O648       Al656   1.903       .  S
O649        C658   1.262       .  A
O649       Al656   1.928       .  S
O650       Al656   1.912       .  S
O651        C658   1.258       .  A
O652       Al656   1.788       .  S
O653        C654   1.257       .  A
C654       C1155   1.437       .  S
C655       C1300   1.434       .  S
C658       C1152   1.433       .  S
C659        O660   1.265       .  A
C659       C1145   1.434       .  S
O661        C676   1.259       .  A
O661       Al669   1.915       .  S
C662        O672   1.260       .  A
C662        O663   1.259       .  A
C662       C1138   1.432       .  S
O663       Al665   1.902       .  S
O664        C666   1.256       .  A
O664       Al665   1.877       .  S
Al665       O673   1.890       .  S
Al665       O675   1.896       .  S
Al665       O674   1.776       .  S
C666        O679   1.266       .  A
C666       C1143   1.435       .  S
O667        C677   1.259       .  A
O667       Al669   1.905       .  S
O668        C681   1.260       .  A
O668       Al678   1.886       .  S
Al669       O682   1.929       .  S
Al669       O679   1.939       .  S
Al669       O674   1.792       .  S
O670        C677   1.258       .  A
O670       Al678   1.904       .  S
O671        C680   1.262       .  A
O671       Al678   1.928       .  S
O672       Al678   1.912       .  S
O673        C680   1.258       .  A
O674       Al678   1.787       .  S
O675        C676   1.257       .  A
C676       C1141   1.437       .  S
C677       C1135   1.434       .  S
C680       C1139   1.433       .  S
C681        O682   1.265       .  A
C681       C1161   1.434       .  S
O683        C698   1.259       .  A
O683       Al691   1.916       .  S
C684        O694   1.260       .  A
C684        O685   1.259       .  A
C684       C1129   1.432       .  S
O685       Al687   1.902       .  S
O686        C688   1.256       .  A
O686       Al687   1.877       .  S
Al687       O695   1.890       .  S
Al687       O697   1.896       .  S
Al687       O696   1.776       .  S
C688        O701   1.265       .  A
C688       C1131   1.435       .  S
O689        C699   1.259       .  A
O689       Al691   1.905       .  S
O690        C703   1.260       .  A
O690       Al700   1.886       .  S
Al691       O704   1.928       .  S
Al691       O701   1.938       .  S
Al691       O696   1.792       .  S
O692        C699   1.258       .  A
O692       Al700   1.904       .  S
O693        C702   1.262       .  A
O693       Al700   1.928       .  S
O694       Al700   1.912       .  S
O695        C702   1.258       .  A
O696       Al700   1.787       .  S
O697        C698   1.257       .  A
C698       C1134   1.437       .  S
C699       C1201   1.434       .  S
C702       C1137   1.433       .  S
C703        O704   1.265       .  A
C703       C1127   1.434       .  S
O705        C720   1.259       .  A
O705       Al713   1.916       .  S
C706        O716   1.260       .  A
C706        O707   1.259       .  A
C706       C1140   1.432       .  S
O707       Al709   1.901       .  S
O708        C710   1.256       .  A
O708       Al709   1.877       .  S
Al709       O717   1.890       .  S
Al709       O719   1.896       .  S
Al709       O718   1.776       .  S
C710        O723   1.266       .  A
C710       C1126   1.435       .  S
O711        C721   1.259       .  A
O711       Al713   1.905       .  S
O712        C725   1.260       .  A
O712       Al722   1.886       .  S
Al713       O726   1.928       .  S
Al713       O723   1.939       .  S
Al713       O718   1.792       .  S
O714        C721   1.258       .  A
O714       Al722   1.904       .  S
O715        C724   1.262       .  A
O715       Al722   1.928       .  S
O716       Al722   1.913       .  S
O717        C724   1.258       .  A
O718       Al722   1.788       .  S
O719        C720   1.257       .  A
C720       C1123   1.437       .  S
C721       C1153   1.434       .  S
C724       C1130   1.433       .  S
C725        O726   1.265       .  A
C725       C1195   1.434       .  S
O727        C742   1.259       .  A
O727       Al735   1.915       .  S
C728        O738   1.260       .  A
C728        O729   1.259       .  A
C728       C1120   1.432       .  S
O729       Al731   1.902       .  S
O730        C732   1.256       .  A
O730       Al731   1.877       .  S
Al731       O739   1.890       .  S
Al731       O741   1.896       .  S
Al731       O740   1.776       .  S
C732        O745   1.266       .  A
C732       C1125   1.435       .  S
O733        C743   1.259       .  A
O733       Al735   1.905       .  S
O734        C747   1.260       .  A
O734       Al744   1.886       .  S
Al735       O748   1.929       .  S
Al735       O745   1.939       .  S
Al735       O740   1.792       .  S
O736        C743   1.258       .  A
O736       Al744   1.903       .  S
O737        C746   1.262       .  A
O737       Al744   1.928       .  S
O738       Al744   1.912       .  S
O739        C746   1.258       .  A
O740       Al744   1.787       .  S
O741        C742   1.257       .  A
C742       C1142   1.437       .  S
C743       C1117   1.434       .  S
C746       C1121   1.433       .  S
C747        O748   1.265       .  A
C747       C1186   1.435       .  S
O749        C764   1.259       .  A
O749       Al757   1.916       .  S
C750        O760   1.260       .  A
C750        O751   1.258       .  A
C750       C1122   1.432       .  S
O751       Al753   1.901       .  S
O752        C754   1.256       .  A
O752       Al753   1.877       .  S
Al753       O761   1.890       .  S
Al753       O763   1.896       .  S
Al753       O762   1.777       .  S
C754        O767   1.266       .  A
C754       C1144   1.435       .  S
O755        C765   1.259       .  A
O755       Al757   1.905       .  S
O756        C769   1.260       .  A
O756       Al766   1.886       .  S
Al757       O770   1.929       .  S
Al757       O767   1.939       .  S
Al757       O762   1.792       .  S
O758        C765   1.258       .  A
O758       Al766   1.904       .  S
O759        C768   1.262       .  A
O759       Al766   1.929       .  S
O760       Al766   1.913       .  S
O761        C768   1.258       .  A
O762       Al766   1.788       .  S
O763        C764   1.256       .  A
C764       C1133   1.437       .  S
C765       C1189   1.434       .  S
C768       C1116   1.433       .  S
C769        O770   1.265       .  A
C769       C1168   1.435       .  S
O771        C786   1.259       .  A
O771       Al779   1.916       .  S
C772        O782   1.260       .  A
C772        O773   1.259       .  A
C772       C1115   1.432       .  S
O773       Al775   1.902       .  S
O774        C776   1.256       .  A
O774       Al775   1.877       .  S
Al775       O783   1.890       .  S
Al775       O785   1.896       .  S
Al775       O784   1.776       .  S
C776        O789   1.266       .  A
C776       C1132   1.435       .  S
O777        C787   1.259       .  A
O777       Al779   1.905       .  S
O778        C791   1.260       .  A
O778       Al788   1.886       .  S
Al779       O792   1.929       .  S
Al779       O789   1.938       .  S
Al779       O784   1.792       .  S
O780        C787   1.258       .  A
O780       Al788   1.904       .  S
O781        C790   1.262       .  A
O781       Al788   1.928       .  S
O782       Al788   1.912       .  S
O783        C790   1.258       .  A
O784       Al788   1.787       .  S
O785        C786   1.257       .  A
C786       C1124   1.437       .  S
C787       C1147   1.434       .  S
C790       C1119   1.433       .  S
C791        O792   1.265       .  A
C791       C1113   1.434       .  S
O793        C808   1.259       .  A
O793       Al801   1.916       .  S
C794        O804   1.260       .  A
C794        O795   1.259       .  A
C794       C1110   1.431       .  S
O795       Al797   1.901       .  S
O796        C798   1.256       .  A
O796       Al797   1.877       .  S
Al797       O805   1.890       .  S
Al797       O807   1.896       .  S
Al797       O806   1.777       .  S
C798        O811   1.266       .  A
C798       C1107   1.435       .  S
O799        C809   1.259       .  A
O799       Al801   1.906       .  S
O800        C813   1.260       .  A
O800       Al810   1.885       .  S
Al801       O814   1.930       .  S
Al801       O811   1.940       .  S
Al801       O806   1.792       .  S
O802        C809   1.258       .  A
O802       Al810   1.903       .  S
O803        C812   1.262       .  A
O803       Al810   1.928       .  S
O804       Al810   1.912       .  S
O805        C812   1.258       .  A
O806       Al810   1.788       .  S
O807        C808   1.256       .  A
C808       C1105   1.437       .  S
C809       C1261   1.434       .  S
C812       C1111   1.433       .  S
C813        O814   1.265       .  A
C813       C1103   1.435       .  S
O815        C830   1.259       .  A
O815       Al823   1.916       .  S
C816        O826   1.260       .  A
C816        O817   1.258       .  A
C816       C1112   1.432       .  S
O817       Al819   1.901       .  S
O818        C820   1.256       .  A
O818       Al819   1.877       .  S
Al819       O827   1.890       .  S
Al819       O829   1.896       .  S
Al819       O828   1.777       .  S
C820        O833   1.266       .  A
C820       C1100   1.435       .  S
O821        C831   1.259       .  A
O821       Al823   1.905       .  S
O822        C835   1.260       .  A
O822       Al832   1.886       .  S
Al823       O836   1.929       .  S
Al823       O833   1.939       .  S
Al823       O828   1.792       .  S
O824        C831   1.258       .  A
O824       Al832   1.903       .  S
O825        C834   1.262       .  A
O825       Al832   1.928       .  S
O826       Al832   1.913       .  S
O827        C834   1.258       .  A
O828       Al832   1.788       .  S
O829        C830   1.256       .  A
C830       C1098   1.437       .  S
C831       C1095   1.434       .  S
C834       C1101   1.433       .  S
C835        O836   1.265       .  A
C835       C1149   1.434       .  S
O837        C852   1.259       .  A
O837       Al845   1.916       .  S
C838        O848   1.260       .  A
C838        O839   1.259       .  A
C838       C1102   1.432       .  S
O839       Al841   1.902       .  S
O840        C842   1.256       .  A
O840       Al841   1.878       .  S
Al841       O849   1.890       .  S
Al841       O851   1.897       .  S
Al841       O850   1.776       .  S
C842        O855   1.266       .  A
C842       C1094   1.435       .  S
O843        C853   1.259       .  A
O843       Al845   1.905       .  S
O844        C857   1.259       .  A
O844       Al854   1.885       .  S
Al845       O858   1.929       .  S
Al845       O855   1.939       .  S
Al845       O850   1.791       .  S
O846        C853   1.258       .  A
O846       Al854   1.903       .  S
O847        C856   1.262       .  A
O847       Al854   1.927       .  S
O848       Al854   1.912       .  S
O849        C856   1.258       .  A
O850       Al854   1.787       .  S
O851        C852   1.257       .  A
C852       C1092   1.437       .  S
C853       C1146   1.434       .  S
C856       C1109   1.433       .  S
C857        O858   1.265       .  A
C857       C1258   1.434       .  S
O859        C874   1.259       .  A
O859       Al867   1.916       .  S
C860        O870   1.260       .  A
C860        O861   1.258       .  A
C860       C1089   1.432       .  S
O861       Al863   1.901       .  S
O862        C864   1.256       .  A
O862       Al863   1.878       .  S
Al863       O871   1.890       .  S
Al863       O873   1.896       .  S
Al863       O872   1.777       .  S
C864        O877   1.266       .  A
C864       C1108   1.435       .  S
O865        C875   1.259       .  A
O865       Al867   1.905       .  S
O866        C879   1.260       .  A
O866       Al876   1.886       .  S
Al867       O880   1.929       .  S
Al867       O877   1.939       .  S
Al867       O872   1.792       .  S
O868        C875   1.258       .  A
O868       Al876   1.903       .  S
O869        C878   1.262       .  A
O869       Al876   1.928       .  S
O870       Al876   1.913       .  S
O871        C878   1.258       .  A
O872       Al876   1.788       .  S
O873        C874   1.257       .  A
C874       C1091   1.437       .  S
C875       C1159   1.434       .  S
C878       C1087   1.433       .  S
C879        O880   1.265       .  A
C879       C1085   1.435       .  S
O881        C896   1.259       .  A
O881       Al889   1.916       .  S
C882        O892   1.260       .  A
C882        O883   1.259       .  A
C882       C1088   1.432       .  S
O883       Al885   1.901       .  S
O884        C886   1.256       .  A
O884       Al885   1.878       .  S
Al885       O893   1.890       .  S
Al885       O895   1.896       .  S
Al885       O894   1.776       .  S
C886        O899   1.266       .  A
C886       C1093   1.435       .  S
O887        C897   1.259       .  A
O887       Al889   1.906       .  S
O888        C901   1.260       .  A
O888       Al898   1.886       .  S
Al889       O902   1.929       .  S
Al889       O899   1.939       .  S
Al889       O894   1.792       .  S
O890        C897   1.258       .  A
O890       Al898   1.903       .  S
O891        C900   1.262       .  A
O891       Al898   1.927       .  S
O892       Al898   1.912       .  S
O893        C900   1.258       .  A
O894       Al898   1.788       .  S
O895        C896   1.257       .  A
C896       C1097   1.437       .  S
C897       C1082   1.434       .  S
C900       C1083   1.433       .  S
C901        O902   1.265       .  A
C901       C1277   1.434       .  S
O903        C918   1.259       .  A
O903       Al911   1.916       .  S
C904        O914   1.260       .  A
C904        O905   1.259       .  A
C904       C1084   1.432       .  S
O905       Al907   1.901       .  S
O906        C908   1.256       .  A
O906       Al907   1.877       .  S
Al907       O915   1.890       .  S
Al907       O917   1.896       .  S
Al907       O916   1.777       .  S
C908        O921   1.266       .  A
C908       C1099   1.435       .  S
O909        C919   1.259       .  A
O909       Al911   1.905       .  S
O910        C923   1.260       .  A
O910       Al920   1.885       .  S
Al911       O924   1.929       .  S
Al911       O921   1.939       .  S
Al911       O916   1.792       .  S
O912        C919   1.258       .  A
O912       Al920   1.903       .  S
O913        C922   1.262       .  A
O913       Al920   1.928       .  S
O914       Al920   1.912       .  S
O915        C922   1.258       .  A
O916       Al920   1.788       .  S
O917        C918   1.256       .  A
C918       C1106   1.437       .  S
C919       C1271   1.434       .  S
C922       C1090   1.433       .  S
C923        O924   1.265       .  A
C923       C1175   1.434       .  S
O925        C940   1.259       .  A
O925       Al933   1.916       .  S
C926        O936   1.260       .  A
C926        O927   1.259       .  A
C926       C1079   1.432       .  S
O927       Al929   1.901       .  S
O928        C930   1.256       .  A
O928       Al929   1.877       .  S
Al929       O937   1.890       .  S
Al929       O939   1.896       .  S
Al929       O938   1.776       .  S
C930        O943   1.266       .  A
C930       C1078   1.435       .  S
O931        C941   1.259       .  A
O931       Al933   1.905       .  S
O932        C945   1.260       .  A
O932       Al942   1.886       .  S
Al933       O946   1.928       .  S
Al933       O943   1.938       .  S
Al933       O938   1.792       .  S
O934        C941   1.258       .  A
O934       Al942   1.903       .  S
O935        C944   1.262       .  A
O935       Al942   1.928       .  S
O936       Al942   1.912       .  S
O937        C944   1.258       .  A
O938       Al942   1.787       .  S
O939        C940   1.257       .  A
C940       C1073   1.437       .  S
C941       C1222   1.434       .  S
C944       C1076   1.433       .  S
C945        O946   1.265       .  A
C945       C1118   1.434       .  S
O947        C962   1.259       .  A
O947       Al955   1.916       .  S
C948        O958   1.260       .  A
C948        O949   1.259       .  A
C948       C1072   1.432       .  S
O949       Al951   1.902       .  S
O950        C952   1.256       .  A
O950       Al951   1.877       .  S
Al951       O959   1.890       .  S
Al951       O961   1.896       .  S
Al951       O960   1.776       .  S
C952        O965   1.266       .  A
C952       C1077   1.435       .  S
O953        C963   1.259       .  A
O953       Al955   1.906       .  S
O954        C967   1.260       .  A
O954       Al964   1.885       .  S
Al955       O968   1.929       .  S
Al955       O965   1.939       .  S
Al955       O960   1.792       .  S
O956        C963   1.258       .  A
O956       Al964   1.903       .  S
O957        C966   1.262       .  A
O957       Al964   1.927       .  S
O958       Al964   1.912       .  S
O959        C966   1.258       .  A
O960       Al964   1.787       .  S
O961        C962   1.257       .  A
C962       C1069   1.437       .  S
C963       C1086   1.434       .  S
C966       C1068   1.433       .  S
C967        O968   1.265       .  A
C967       C1136   1.434       .  S
O969        C984   1.259       .  A
O969       Al977   1.916       .  S
C970        O980   1.260       .  A
C970        O971   1.258       .  A
C970       C1063   1.432       .  S
O971       Al973   1.901       .  S
O972        C974   1.256       .  A
O972       Al973   1.877       .  S
Al973       O981   1.890       .  S
Al973       O983   1.896       .  S
Al973       O982   1.777       .  S
C974        O987   1.266       .  A
C974       C1065   1.435       .  S
O975        C985   1.259       .  A
O975       Al977   1.905       .  S
O976        C989   1.260       .  A
O976       Al986   1.886       .  S
Al977       O990   1.929       .  S
Al977       O987   1.940       .  S
Al977       O982   1.792       .  S
O978        C985   1.258       .  A
O978       Al986   1.904       .  S
O979        C988   1.262       .  A
O979       Al986   1.928       .  S
O980       Al986   1.913       .  S
O981        C988   1.258       .  A
O982       Al986   1.788       .  S
O983        C984   1.257       .  A
C984       C1074   1.437       .  S
C985       C1247   1.434       .  S
C988       C1071   1.433       .  S
C989        O990   1.265       .  A
C989       C1081   1.435       .  S
O991       C1006   1.259       .  A
O991       Al999   1.916       .  S
C992       O1002   1.260       .  A
C992        O993   1.259       .  A
C992       C1067   1.431       .  S
O993       Al995   1.901       .  S
O994        C996   1.256       .  A
O994       Al995   1.877       .  S
Al995      O1003   1.890       .  S
Al995      O1005   1.896       .  S
Al995      O1004   1.776       .  S
C996       O1009   1.266       .  A
C996       C1061   1.435       .  S
O997       C1007   1.259       .  A
O997       Al999   1.905       .  S
O998       C1011   1.260       .  A
O998      Al1008   1.885       .  S
Al999      O1012   1.930       .  S
Al999      O1009   1.940       .  S
Al999      O1004   1.792       .  S
O1000      C1007   1.258       .  A
O1000     Al1008   1.903       .  S
O1001      C1010   1.262       .  A
O1001     Al1008   1.928       .  S
O1002     Al1008   1.912       .  S
O1003      C1010   1.258       .  A
O1004     Al1008   1.788       .  S
O1005      C1006   1.256       .  A
C1006      C1059   1.437       .  S
C1007      C1128   1.434       .  S
C1010      C1064   1.433       .  S
C1011      O1012   1.265       .  A
C1011      C1237   1.434       .  S
O1013      C1028   1.259       .  A
O1013     Al1021   1.915       .  S
C1014      O1024   1.260       .  A
C1014      O1015   1.259       .  A
C1014      C1075   1.432       .  S
O1015     Al1017   1.902       .  S
O1016      C1018   1.256       .  A
O1016     Al1017   1.877       .  S
Al1017     O1025   1.890       .  S
Al1017     O1027   1.896       .  S
Al1017     O1026   1.776       .  S
C1018      O1031   1.266       .  A
C1018      C1066   1.435       .  S
O1019      C1029   1.259       .  A
O1019     Al1021   1.905       .  S
O1020      C1033   1.260       .  A
O1020     Al1030   1.885       .  S
Al1021     O1034   1.930       .  S
Al1021     O1031   1.940       .  S
Al1021     O1026   1.792       .  S
O1022      C1029   1.258       .  A
O1022     Al1030   1.903       .  S
O1023      C1032   1.262       .  A
O1023     Al1030   1.928       .  S
O1024     Al1030   1.912       .  S
O1025      C1032   1.258       .  A
O1026     Al1030   1.788       .  S
O1027      C1028   1.257       .  A
C1028      C1060   1.437       .  S
C1029      C1114   1.434       .  S
C1032      C1057   1.433       .  S
C1033      O1034   1.265       .  A
C1033      C1096   1.434       .  S
O1035      C1050   1.259       .  A
O1035     Al1043   1.916       .  S
C1036      O1046   1.260       .  A
C1036      O1037   1.258       .  A
C1036      C1058   1.432       .  S
O1037     Al1039   1.901       .  S
O1038      C1040   1.256       .  A
O1038     Al1039   1.878       .  S
Al1039     O1047   1.890       .  S
Al1039     O1049   1.896       .  S
Al1039     O1048   1.777       .  S
C1040      O1053   1.266       .  A
C1040      C1062   1.435       .  S
O1041      C1051   1.259       .  A
O1041     Al1043   1.905       .  S
O1042      C1055   1.260       .  A
O1042     Al1052   1.886       .  S
Al1043     O1056   1.929       .  S
Al1043     O1053   1.940       .  S
Al1043     O1048   1.792       .  S
O1044      C1051   1.258       .  A
O1044     Al1052   1.904       .  S
O1045      C1054   1.262       .  A
O1045     Al1052   1.928       .  S
O1046     Al1052   1.913       .  S
O1047      C1054   1.258       .  A
O1048     Al1052   1.788       .  S
O1049      C1050   1.257       .  A
C1050      C1070   1.437       .  S
C1051      C1104   1.434       .  S
C1054      C1080   1.433       .  S
C1055      O1056   1.265       .  A
C1055      C1218   1.435       .  S
C1057      C1058   1.204       .  T
C1059      C1060   1.207       .  T
C1061      C1062   1.206       .  T
C1063      C1064   1.204       .  T
C1065      C1066   1.206       .  T
C1067      C1068   1.204       .  T
C1069      C1070   1.207       .  T
C1071      C1072   1.204       .  T
C1073      C1074   1.207       .  T
C1075      C1076   1.204       .  T
C1077      C1078   1.206       .  T
C1079      C1080   1.204       .  T
C1081      C1082   1.205   1_565  T
C1083      C1084   1.204       .  T
C1085      C1086   1.205   1_545  T
C1087      C1088   1.204       .  T
C1089      C1090   1.205       .  T
C1091      C1092   1.207       .  T
C1093      C1094   1.206       .  T
C1095      C1096   1.205       .  T
C1097      C1098   1.207       .  T
C1099      C1100   1.206       .  T
C1101      C1102   1.204       .  T
C1103      C1104   1.205       .  T
C1105      C1106   1.207       .  T
C1107      C1108   1.206       .  T
C1109      C1110   1.204       .  T
C1111      C1112   1.204       .  T
C1113      C1114   1.205       .  T
C1115      C1116   1.204       .  T
C1117      C1118   1.205       .  T
C1119      C1120   1.204       .  T
C1121      C1122   1.204       .  T
C1123      C1124   1.207       .  T
C1125      C1126   1.206       .  T
C1127      C1128   1.205   1_655  T
C1129      C1130   1.204       .  T
C1131      C1132   1.206       .  T
C1133      C1134   1.207       .  T
C1135      C1136   1.205   1_655  T
C1137      C1138   1.204       .  T
C1139      C1140   1.204       .  T
C1141      C1142   1.207       .  T
C1143      C1144   1.206       .  T
C1145      C1146   1.205       .  T
C1147      C1148   1.205       .  T
C1149      C1150   1.205       .  T
C1151      C1152   1.204       .  T
C1153      C1154   1.205   1_565  T
C1155      C1156   1.207       .  T
C1157      C1158   1.206       .  T
C1159      C1160   1.205   1_455  T
C1161      C1162   1.205   1_565  T
C1163      C1164   1.204       .  T
C1165      C1166   1.206       .  T
C1167      C1168   1.205       .  T
C1169      C1170   1.204       .  T
C1171      C1172   1.207       .  T
C1173      C1174   1.204       .  T
C1175      C1176   1.205   1_455  T
C1177      C1178   1.204       .  T
C1179      C1180   1.204       .  T
C1181      C1182   1.206       .  T
C1183      C1184   1.207       .  T
C1185      C1186   1.205       .  T
C1187      C1188   1.205       .  T
C1189      C1190   1.205       .  T
C1191      C1192   1.204       .  T
C1193      C1194   1.204       .  T
C1195      C1196   1.205   1_554  T
C1197      C1198   1.207       .  T
C1199      C1200   1.206       .  T
C1201      C1202   1.205   1_554  T
C1203      C1204   1.206       .  T
C1205      C1206   1.207       .  T
C1207      C1208   1.204       .  T
C1209      C1210   1.207       .  T
C1211      C1212   1.204       .  T
C1213      C1214   1.206       .  T
C1215      C1216   1.204       .  T
C1217      C1218   1.205       .  T
C1219      C1220   1.205       .  T
C1221      C1222   1.205       .  T
C1223      C1224   1.204       .  T
C1225      C1226   1.205       .  T
C1227      C1228   1.204       .  T
C1229      C1230   1.204       .  T
C1231      C1232   1.205   1_455  T
C1233      C1234   1.206       .  T
C1235      C1236   1.207       .  T
C1237      C1238   1.205   1_554  T
C1239      C1240   1.205   1_655  T
C1241      C1242   1.207       .  T
C1243      C1244   1.206       .  T
C1245      C1246   1.204       .  T
C1247      C1248   1.205   1_554  T
C1249      C1250   1.204       .  T
C1251      C1252   1.204       .  T
C1253      C1254   1.207       .  T
C1255      C1256   1.206       .  T
C1257      C1258   1.205       .  T
C1259      C1260   1.205       .  T
C1261      C1262   1.205       .  T
C1263      C1264   1.204       .  T
C1265      C1266   1.205       .  T
C1267      C1268   1.204       .  T
C1269      C1270   1.204       .  T
C1271      C1272   1.205   1_554  T
C1273      C1274   1.207       .  T
C1275      C1276   1.206       .  T
C1277      C1278   1.205   1_554  T
C1279      C1280   1.205   1_545  T
C1281      C1282   1.204       .  T
C1283      C1284   1.206       .  T
C1285      C1286   1.207       .  T
C1287      C1288   1.205   1_545  T
C1289      C1290   1.207       .  T
C1291      C1292   1.206       .  T
C1293      C1294   1.204       .  T
C1295      C1296   1.204       .  T
C1297      C1298   1.205       .  T
C1299      C1300   1.205       .  T
C1301      C1302   1.205       .  T
C1303      C1304   1.205       .  T
C1305      C1306   1.204       .  T
C1307      C1308   1.205       .  T
C1309      C1310   1.205       .  T
C1311      C1312   1.204       .  T
C1313      C1314   1.204       .  T
C1315      C1316   1.205   1_655  T
C1317      C1318   1.205   1_565  T
C1319      C1320   1.207       .  T
C1321      C1322   1.206       .  T
C1323      C1324   1.205   1_554  T
C1325      C1326   1.205   1_565  T
C1327      C1328   1.206       .  T
C1329      C1330   1.207       .  T
C1331      C1332   1.204       .  T
C1333      C1334   1.205   1_554  T
C1335      C1336   1.205   1_455  T
C1337      C1338   1.204       .  T
C1339      C1340   1.204       .  T
C1341      C1342   1.207       .  T
C1343      C1344   1.206       .  T
