geometry optimzed in LAMMPS
_audit_creation_date              2020-11-30 
_audit_creation_method            'lammps2cif' 
_symmetry_space_group_name_H-M    'P1' 
_symmetry_Int_Tables_number       1 
_symmetry_cell_setting            triclinic 
loop_ 
_symmetry_equiv_pos_as_xyz 
  x,y,z 
_cell_length_a                    87.98932863 
_cell_length_b                    48.239371611782694 
_cell_length_c                    69.8107496889068 
_cell_angle_alpha                 90.1489306766486 
_cell_angle_beta                  90.09925026880462 
_cell_angle_gamma                 90.07287698408938 
loop_ 
_atom_site_label 
_atom_site_type_symbol 
_atom_site_fract_x 
_atom_site_fract_y 
_atom_site_fract_z 
_atom_site_charge 
C1          C  0.79996702  0.11836620  0.56857199     0.03200
C2          C  0.80056943  0.09083504  0.56200762    -0.13000
C3          C  0.78939246  0.08045024  0.54949644     0.00700
C4          C  0.77770269  0.09808251  0.54330645    -0.11500
C5          C  0.77695346  0.12568587  0.54964639     0.03100
C6          C  0.78811835  0.13560874  0.56232720    -0.10900
H7          H  0.80942984  0.07719489  0.56719991     0.08700
H8          H  0.76934266  0.09042174  0.53318266     0.06300
H9          H  0.78755779  0.15679414  0.56745010     0.06100
C10         C  0.79819247  0.14770515  0.97268670     0.03200
C11         C  0.78700291  0.16611905  0.97939796    -0.13000
C12         C  0.77668278  0.15798925  0.99370559     0.00700
C13         C  0.77783545  0.13118615  0.00143229    -0.11500
C14         C  0.78877081  0.11234961  0.99471212     0.03100
C15         C  0.79892224  0.12086698  0.98038883    -0.10900
H16         H  0.78620768  0.18666554  0.97327815     0.08700
H17         H  0.77025089  0.12500277  0.01285182     0.06300
H18         H  0.80704051  0.10618881  0.97464700     0.06100
N19         N  0.88723962  0.19450741  0.79707892    -0.27300
N20         N  0.89995203  0.19528878  0.80715078    -0.35100
C21         C  0.89649479  0.19439422  0.82589725     0.01100
C22         C  0.88079913  0.19288967  0.82778421     0.07100
C23         C  0.87536393  0.19308701  0.80910755    -0.06000
H24         H  0.90488738  0.19431776  0.83722078     0.07800
H25         H  0.86367565  0.19153697  0.80443006     0.09000
Cu26       Cu  0.92143188  0.19572777  0.79487087     0.44200
Cu27       Cu  0.88653026  0.19370965  0.76744471     0.42000
Cu28       Cu  0.92252622  0.19355713  0.74281305     0.43900
N29         N  0.94136566  0.19405125  0.77900917    -0.34600
N30         N  0.94172065  0.19329021  0.76007419    -0.28900
C31         C  0.95626175  0.19185573  0.75426531    -0.05000
C32         C  0.96550507  0.19171430  0.77029683     0.07200
C33         C  0.95569634  0.19312633  0.78574294     0.01000
H34         H  0.95980933  0.19089468  0.73945155     0.08700
H35         H  0.95872060  0.19337278  0.80076760     0.07700
N36         N  0.90173835  0.19151878  0.72886681    -0.36100
N37         N  0.88858684  0.19150701  0.73794979    -0.28300
C38         C  0.87730294  0.18869294  0.72510934    -0.03500
C39         C  0.88361029  0.18677810  0.70695415     0.05100
C40         C  0.89917537  0.18870034  0.70996229     0.03200
H41         H  0.86541792  0.18729753  0.72889876     0.08300
H42         H  0.90806003  0.18770635  0.69930431     0.07100
C43         C  0.80100873  0.79370169  0.47273283     0.03200
C44         C  0.80104421  0.82130995  0.47926592    -0.13000
C45         C  0.78994481  0.83083129  0.49213976     0.00700
C46         C  0.77861980  0.81242858  0.49838014    -0.11500
C47         C  0.77837713  0.78478530  0.49206524     0.03100
C48         C  0.78968597  0.77551347  0.47940106    -0.10900
H49         H  0.80941646  0.83573677  0.47381411     0.08700
H50         H  0.77013270  0.81945104  0.50851090     0.06300
H51         H  0.78952614  0.75417314  0.47454775     0.06100
C52         C  0.79860087  0.82755103  0.07420763     0.03200
C53         C  0.79919721  0.85461244  0.06681333    -0.13000
C54         C  0.78819907  0.86394901  0.05373194     0.00700
C55         C  0.77655451  0.84583268  0.04798418    -0.11500
C56         C  0.77568378  0.81876243  0.05524686     0.03100
C57         C  0.78679964  0.80974695  0.06830082    -0.10900
H58         H  0.80819615  0.86851140  0.07133877     0.08700
H59         H  0.76828123  0.85268798  0.03751513     0.06300
H60         H  0.78598688  0.78913401  0.07433200     0.06100
N61         N  0.89037271  0.74106686  0.29983384    -0.27300
N62         N  0.90334537  0.73924189  0.30928588    -0.35100
C63         C  0.90046221  0.73971059  0.32820530     0.01100
C64         C  0.88487283  0.74194720  0.33084164     0.07100
C65         C  0.87888894  0.74269367  0.31244635    -0.06000
H66         H  0.90914642  0.73880450  0.33916219     0.07800
H67         H  0.86709861  0.74511508  0.30840241     0.09000
Cu68       Cu  0.92434024  0.73746445  0.29584997     0.44200
Cu69       Cu  0.88888487  0.74297370  0.27024338     0.42000
Cu70       Cu  0.92406772  0.74152872  0.24366671     0.43900
N71         N  0.94375430  0.73677935  0.27901658    -0.34600
N72         N  0.94367754  0.73812147  0.26009009    -0.28900
C73         C  0.95810576  0.73767172  0.25373727    -0.05000
C74         C  0.96769363  0.73600206  0.26941364     0.07200
C75         C  0.95821996  0.73546030  0.28519088     0.01000
H76         H  0.96135230  0.73882143  0.23882302     0.08700
H77         H  0.96156823  0.73449183  0.30008965     0.07700
N78         N  0.90289681  0.74644863  0.23093677    -0.36100
N79         N  0.89005939  0.74670635  0.24072320    -0.28300
C80         C  0.87841705  0.75086616  0.22859511    -0.03500
C81         C  0.88414970  0.75347640  0.21020225     0.05100
C82         C  0.89975607  0.75057490  0.21228417     0.03200
H83         H  0.86668401  0.75266746  0.23301264     0.08300
H84         H  0.90825327  0.75154213  0.20113038     0.07100
C85         C  0.65289403  0.61706441  0.57394594     0.03200
C86         C  0.65166432  0.58989872  0.56673219    -0.13000
C87         C  0.66181804  0.58002352  0.55281480     0.00700
C88         C  0.67316689  0.59777107  0.54582647    -0.11500
C89         C  0.67450955  0.62505673  0.55264787     0.03100
C90         C  0.66437348  0.63450055  0.56675950    -0.10900
H91         H  0.64284618  0.57627205  0.57203706     0.08700
H92         H  0.68077711  0.59050344  0.53471636     0.06300
H93         H  0.66572357  0.65523111  0.57250891     0.06100
C94         C  0.64727982  0.65139720  0.97810908     0.03200
C95         C  0.65862395  0.66940053  0.98499886    -0.13000
C96         C  0.66919709  0.66054890  0.99877654     0.00700
C97         C  0.66821300  0.63335729  0.00585913    -0.11500
C98         C  0.65696915  0.61497377  0.99917986     0.03100
C99         C  0.64653847  0.62423701  0.98532014    -0.10900
H100        H  0.65934173  0.69030096  0.97944890     0.08700
H101        H  0.67610846  0.62660631  0.01680911     0.06300
H102        H  0.63817439  0.60994477  0.97959512     0.06100
N103        N  0.56312654  0.69826838  0.74308736    -0.27300
N104        N  0.55040382  0.69625464  0.73310576    -0.35100
C105        C  0.55383921  0.69099360  0.71469119     0.01100
C106        C  0.56953323  0.68961054  0.71291429     0.07100
C107        C  0.57499425  0.69438170  0.73129866    -0.06000
H108        H  0.54544311  0.68817234  0.70353015     0.07800
H109        H  0.58670695  0.69436293  0.73599777     0.09000
Cu110      Cu  0.52893855  0.69964136  0.74508009     0.44200
Cu111      Cu  0.56390152  0.70425399  0.77250179     0.42000
Cu112      Cu  0.52788089  0.70392314  0.79698914     0.43900
N113        N  0.50903643  0.70248819  0.76081448    -0.34600
N114        N  0.50865888  0.70382353  0.77973188    -0.28900
C115        C  0.49409316  0.70488475  0.78548815    -0.05000
C116        C  0.48488012  0.70418003  0.76942656     0.07200
C117        C  0.49471913  0.70270311  0.75403070     0.01000
H118        H  0.49050366  0.70584589  0.80028579     0.08700
H119        H  0.49172096  0.70150333  0.73901763     0.07700
N120        N  0.54865491  0.70498347  0.81108225    -0.36100
N121        N  0.56183332  0.70563036  0.80207745    -0.28300
C122        C  0.57310999  0.70559719  0.81508823    -0.03500
C123        C  0.56677647  0.70480829  0.83329664     0.05100
C124        C  0.55118936  0.70447069  0.83008507     0.03200
H125        H  0.58503326  0.70533636  0.81139595     0.08300
H126        H  0.54226439  0.70347954  0.84068112     0.07100
C127        C  0.64801375  0.32468859  0.06934936     0.03200
C128        C  0.64712210  0.35206223  0.06266695    -0.13000
C129        C  0.65776355  0.36235222  0.04951352     0.00700
C130        C  0.66933532  0.34472965  0.04285219    -0.11500
C131        C  0.67044350  0.31720513  0.04934082     0.03100
C132        C  0.65970799  0.30742335  0.06262250    -0.10900
H133        H  0.63847699  0.36576932  0.06833996     0.08700
H134        H  0.67735498  0.35237459  0.03236196     0.06300
H135        H  0.66053121  0.28639852  0.06791590     0.06100
C136        C  0.64965757  0.29488054  0.47409565     0.03200
C137        C  0.66120053  0.27704217  0.48038317    -0.13000
C138        C  0.67204545  0.28600233  0.49383432     0.00700
C139        C  0.67129122  0.31331522  0.50084040    -0.11500
C140        C  0.65978184  0.33137187  0.49468750     0.03100
C141        C  0.64892223  0.32190737  0.48147311    -0.10900
H142        H  0.66184443  0.25624578  0.47455346     0.08700
H143        H  0.67948697  0.32044252  0.51135801     0.06300
H144        H  0.64028047  0.33601577  0.47627753     0.06100
N145        N  0.56061054  0.24543840  0.29974688    -0.27300
N146        N  0.54781204  0.24315354  0.30948205    -0.35100
C147        C  0.55101718  0.24391808  0.32832708     0.01100
C148        C  0.56661942  0.24675484  0.33055398     0.07100
C149        C  0.57228799  0.24760708  0.31206539    -0.06000
H150        H  0.54256321  0.24266072  0.33951621     0.07800
H151        H  0.58398708  0.25045306  0.30776630     0.09000
Cu152      Cu  0.52660774  0.24018729  0.29653018     0.44200
Cu153      Cu  0.56173077  0.24744258  0.27023100     0.42000
Cu154      Cu  0.52643961  0.24627587  0.24439949     0.43900
N155        N  0.50707851  0.23910468  0.27978063    -0.34600
N156        N  0.50709080  0.24134048  0.26089679    -0.28900
C157        C  0.49268149  0.24078133  0.25449804    -0.05000
C158        C  0.48313288  0.23809360  0.27007292     0.07200
C159        C  0.49262094  0.23704652  0.28588122     0.01000
H160        H  0.48942030  0.24268775  0.23961433     0.08700
H161        H  0.48928137  0.23543353  0.30074173     0.07700
N162        N  0.54729803  0.25214607  0.23132819    -0.36100
N163        N  0.56024196  0.25240726  0.24090735    -0.28300
C164        C  0.57169508  0.25739547  0.22871431    -0.03500
C165        C  0.56571909  0.26050564  0.21044452     0.05100
C166        C  0.55016165  0.25696219  0.21271282     0.03200
H167        H  0.58347861  0.25880837  0.23301371     0.08300
H168        H  0.54147281  0.25829366  0.20178609     0.07100
C169        C  0.15346219  0.11699859  0.57565582     0.03200
C170        C  0.16479626  0.13521590  0.56908169    -0.13000
C171        C  0.17505933  0.12693841  0.55476403     0.00700
C172        C  0.17378252  0.10019815  0.54692963    -0.11500
C173        C  0.16263207  0.08163452  0.55340600     0.03100
C174        C  0.15249761  0.09023921  0.56774190    -0.10900
H175        H  0.16568330  0.15581016  0.57519544     0.08700
H176        H  0.18136346  0.09394064  0.53550528     0.06300
H177        H  0.14414501  0.07576731  0.57319566     0.06100
C178        C  0.14905597  0.14701817  0.97631871     0.03200
C179        C  0.14882752  0.11996346  0.98371175    -0.13000
C180        C  0.15987185  0.11124178  0.99692097     0.00700
C181        C  0.17114533  0.13002764  0.00288995    -0.11500
C182        C  0.17145688  0.15730299  0.99586391     0.03100
C183        C  0.16039644  0.16554984  0.98249314    -0.10900
H184        H  0.14033332  0.10536230  0.97869067     0.08700
H185        H  0.17969653  0.12337231  0.01306049     0.06300
H186        H  0.16038738  0.18663391  0.97719126     0.06100
N187        N  0.06029637  0.19046421  0.74383921    -0.27300
N188        N  0.04774050  0.18711306  0.73370464    -0.35100
C189        C  0.05153412  0.18214465  0.71534565     0.01100
C190        C  0.06728976  0.18229359  0.71384704     0.07100
C191        C  0.07238047  0.18774642  0.73229029    -0.06000
H192        H  0.04336515  0.17807870  0.70409894     0.07800
H193        H  0.08400527  0.18869233  0.73727416     0.09000
Cu194      Cu  0.02617044  0.18769662  0.74578658     0.44200
Cu195      Cu  0.06080020  0.19542533  0.77322823     0.42000
Cu196      Cu  0.02529257  0.19007662  0.79810201     0.43900
N197        N  0.00634353  0.18880492  0.76192201    -0.34600
N198        N  0.00605008  0.18967070  0.78086481    -0.28900
C199        C  0.99150940  0.19065751  0.78674664    -0.05000
C200        C  0.98221384  0.19041319  0.77076041     0.07200
C201        C  0.99198388  0.18920013  0.75527392     0.01000
H202        H  0.98799884  0.19169654  0.80157251     0.08700
H203        H  0.98891382  0.18885072  0.74026507     0.07700
N204        N  0.04616473  0.19137428  0.81195918    -0.36100
N205        N  0.05916663  0.19385113  0.80271990    -0.28300
C206        C  0.07065709  0.19343912  0.81539526    -0.03500
C207        C  0.06466020  0.19050819  0.83365576     0.05100
C208        C  0.04903367  0.18931389  0.83083726     0.03200
H209        H  0.08249996  0.19476731  0.81141245     0.08300
H210        H  0.04033726  0.18661771  0.84159265     0.07100
C211        C  0.15215192  0.82326289  0.07251591     0.03200
C212        C  0.15156820  0.85119726  0.06690157    -0.13000
C213        C  0.16214613  0.86200175  0.05383137     0.00700
C214        C  0.17339089  0.84441885  0.04631915    -0.11500
C215        C  0.17413557  0.81642595  0.05170016     0.03100
C216        C  0.16344430  0.80601391  0.06475792    -0.10900
H217        H  0.14291314  0.86463005  0.07283470     0.08700
H218        H  0.18189406  0.85273563  0.03670805     0.06300
H219        H  0.16378869  0.78431079  0.06867676     0.06100
C220        C  0.15189563  0.79755076  0.47182677     0.03200
C221        C  0.15128506  0.82482395  0.47888302    -0.13000
C222        C  0.16158846  0.83410149  0.49285168     0.00700
C223        C  0.17248573  0.81563806  0.50003480    -0.11500
C224        C  0.17321999  0.78820410  0.49333528     0.03100
C225        C  0.16289481  0.77931594  0.47918799    -0.10900
H226        H  0.14284548  0.83902722  0.47333260     0.08700
H227        H  0.18049701  0.82271391  0.51079102     0.06300
H228        H  0.16349585  0.75825944  0.47382459     0.06100
N229        N  0.06198803  0.74507181  0.24095626    -0.27300
N230        N  0.04920753  0.74530359  0.23102638    -0.35100
C231        C  0.05249473  0.74953010  0.21243883     0.01100
C232        C  0.06815985  0.75211525  0.21054591     0.07100
C233        C  0.07373076  0.74914420  0.22903709    -0.06000
H234        H  0.04402328  0.75091023  0.20125118     0.07800
H235        H  0.08543012  0.75023606  0.23371714     0.09000
Cu236      Cu  0.02797945  0.74080868  0.24362094     0.44200
Cu237      Cu  0.06301598  0.74049426  0.27036974     0.42000
Cu238      Cu  0.02776400  0.73584477  0.29602414     0.43900
N239        N  0.00842856  0.73746379  0.26011099    -0.34600
N240        N  0.00838237  0.73574945  0.27902875    -0.28900
C241        C  0.99392131  0.73466056  0.28518003    -0.05000
C242        C  0.98441697  0.73574972  0.26941180     0.07200
C243        C  0.99398086  0.73748102  0.25375536     0.01000
H244        H  0.99059928  0.73351718  0.30006791     0.08700
H245        H  0.99070690  0.73904750  0.23885580     0.07700
N246        N  0.04879417  0.73745725  0.30947944    -0.36100
N247        N  0.06169982  0.73882859  0.29991032    -0.28300
C248        C  0.07329051  0.74069271  0.31237417    -0.03500
C249        C  0.06746672  0.74060834  0.33082250     0.05100
C250        C  0.05183601  0.73849042  0.32837166     0.03200
H251        H  0.08504156  0.74296690  0.30815754     0.08300
H252        H  0.04324085  0.73816165  0.33941926     0.07100
C253        C  0.30038664  0.62000644  0.57007664     0.03200
C254        C  0.30109364  0.59293356  0.56267304    -0.13000
C255        C  0.28999493  0.58321433  0.54982307     0.00700
C256        C  0.27821815  0.60107508  0.54418905    -0.11500
C257        C  0.27737472  0.62822946  0.55139800     0.03100
C258        C  0.28849979  0.63750269  0.56433467    -0.10900
H259        H  0.31017678  0.57925965  0.56715086     0.08700
H260        H  0.26960916  0.59375026  0.53428128     0.06300
H261        H  0.28783930  0.65836152  0.57005286     0.06100
C262        C  0.29964128  0.64803025  0.96867976     0.03200
C263        C  0.30018812  0.62117912  0.97638815    -0.13000
C264        C  0.29001999  0.61296037  0.99077089     0.00700
C265        C  0.27931782  0.63212152  0.99764755    -0.11500
C266        C  0.27862814  0.65913356  0.99020578     0.03100
C267        C  0.28886053  0.66691222  0.97574524    -0.10900
H268        H  0.30842735  0.60646847  0.97097687     0.08700
H269        H  0.27137561  0.62587617  0.00866333     0.06300
H270        H  0.28830004  0.68761037  0.96981640     0.06100
N271        N  0.39138122  0.69831325  0.73716360    -0.27300
N272        N  0.40431625  0.69695743  0.72766846    -0.35100
C273        C  0.40124082  0.69313335  0.70895251     0.01100
C274        C  0.38556395  0.69208959  0.70661570     0.07100
C275        C  0.37975218  0.69545524  0.72488931    -0.06000
H276        H  0.40981563  0.69103952  0.69796902     0.07800
H277        H  0.36795683  0.69502710  0.72919059     0.09000
Cu278      Cu  0.42529533  0.69948597  0.74120465     0.44200
Cu279      Cu  0.38987965  0.70212159  0.76643993     0.42000
Cu280      Cu  0.42429785  0.70177492  0.79388757     0.43900
N281        N  0.44438284  0.70203655  0.75866422    -0.34600
N282        N  0.44402595  0.70274226  0.77761567    -0.28900
C283        C  0.45835030  0.70395800  0.78432315    -0.05000
C284        C  0.46816914  0.70398111  0.76888384     0.07200
C285        C  0.45894337  0.70278750  0.75285268     0.01000
H286        H  0.46136750  0.70449172  0.79934681     0.08700
H287        H  0.46252320  0.70220064  0.73804231     0.07700
N288        N  0.40284401  0.70176966  0.80619972    -0.36100
N289        N  0.39026165  0.70224425  0.79589184    -0.28300
C290        C  0.37819645  0.70128799  0.80757841    -0.03500
C291        C  0.38335617  0.70007567  0.82631077     0.05100
C292        C  0.39910085  0.70051673  0.82485857     0.03200
H293        H  0.36654851  0.70105475  0.80262618     0.08300
H294        H  0.40727306  0.69919130  0.83640435     0.07100
C295        C  0.30011429  0.29675563  0.47255553     0.03200
C296        C  0.28882309  0.27863151  0.47931840    -0.13000
C297        C  0.27789281  0.28777139  0.49255243     0.00700
C298        C  0.27835744  0.31537457  0.49900151    -0.11500
C299        C  0.28964584  0.33368521  0.49253437     0.03100
C300        C  0.30050276  0.32416330  0.47936282    -0.10900
H301        H  0.28845349  0.25745699  0.47412739     0.08700
H302        H  0.27013775  0.32243877  0.50946364     0.06300
H303        H  0.30894773  0.33842464  0.47385919     0.06100
C304        C  0.29915453  0.32840234  0.07070299     0.03200
C305        C  0.29983147  0.35540167  0.06320882    -0.13000
C306        C  0.28904420  0.36460596  0.04982694     0.00700
C307        C  0.27758600  0.34633258  0.04369298    -0.11500
C308        C  0.27675189  0.31918664  0.05085558     0.03100
C309        C  0.28758382  0.31041363  0.06437223    -0.10900
H310        H  0.30868828  0.36944881  0.06795283     0.08700
H311        H  0.26919938  0.35337324  0.03343032     0.06300
H312        H  0.28690470  0.28961484  0.07010582     0.06100
N313        N  0.38890406  0.24378392  0.29865189    -0.27300
N314        N  0.40164255  0.24070079  0.30841560    -0.35100
C315        C  0.39843561  0.24104314  0.32724620     0.01100
C316        C  0.38286341  0.24458585  0.32948313     0.07100
C317        C  0.37724957  0.24613624  0.31092717    -0.06000
H318        H  0.40693480  0.23953496  0.33838997     0.07800
H319        H  0.36563389  0.24961283  0.30649826     0.09000
Cu320      Cu  0.42277374  0.23817736  0.29541719     0.44200
Cu321      Cu  0.38802766  0.24718793  0.26919777     0.42000
Cu322      Cu  0.42330849  0.24596418  0.24318669     0.43900
N323        N  0.44236444  0.23801332  0.27892887    -0.34600
N324        N  0.44254780  0.24070866  0.26006974    -0.28900
C325        C  0.45705077  0.24063818  0.25403547    -0.05000
C326        C  0.46642209  0.23784803  0.26983228     0.07200
C327        C  0.45674762  0.23620477  0.28536743     0.01000
H328        H  0.46049852  0.24304072  0.23926743     0.08700
H329        H  0.45990399  0.23435797  0.30029150     0.07700
N330        N  0.40236885  0.25277554  0.23027222    -0.36100
N331        N  0.38951283  0.25315922  0.23998653    -0.28300
C332        C  0.37797483  0.25850249  0.22797186    -0.03500
C333        C  0.38375054  0.26163105  0.20963112     0.05100
C334        C  0.39932881  0.25786415  0.21170437     0.03200
H335        H  0.36626944  0.26022991  0.23247915     0.08300
H336        H  0.40788055  0.25873388  0.20062089     0.07100
C337        C  0.31029976  0.31931216  0.08546419    -0.03300
C338        C  0.31504365  0.33772272  0.09997921    -0.09100
C339        C  0.32542476  0.32924821  0.11394310    -0.16800
C340        C  0.33119873  0.30225113  0.11368798     0.25400
C341        C  0.32656323  0.28372157  0.09935697    -0.18400
C342        C  0.31620222  0.29218620  0.08531060    -0.07300
C343        C  0.34152794  0.29351508  0.12849785    -0.13800
C344        C  0.34961155  0.28701933  0.14170600    -0.13500
C345        C  0.35832577  0.28005338  0.15848159     0.25300
C346        C  0.37422704  0.27976607  0.15795641    -0.18900
C347        C  0.38255092  0.27367162  0.17453557    -0.07400
C348        C  0.37505164  0.26781964  0.19187735    -0.03500
C349        C  0.35904624  0.26804957  0.19213507    -0.08800
C350        C  0.35078474  0.27413102  0.17558884    -0.16400
H351        H  0.31052577  0.35855810  0.10076343     0.11700
H352        H  0.32883467  0.34369452  0.12506322     0.11000
H353        H  0.33093293  0.26273714  0.09905374     0.11000
H354        H  0.31293276  0.27759800  0.07423308     0.11500
H355        H  0.38018962  0.28441881  0.14478299     0.11500
H356        H  0.39482198  0.27380676  0.17373571     0.11500
H357        H  0.35279191  0.26349384  0.20506051     0.11700
H358        H  0.33847896  0.27432499  0.17617020     0.10500
C359        C  0.31109564  0.28754835  0.45774909    -0.03300
C360        C  0.30604517  0.27235299  0.44174183    -0.09100
C361        C  0.31617296  0.26506120  0.42718901    -0.16800
C362        C  0.33148622  0.27272200  0.42846704     0.25400
C363        C  0.33669214  0.28743316  0.44450262    -0.18400
C364        C  0.32655666  0.29484492  0.45906083    -0.07300
C365        C  0.34162741  0.26638601  0.41291200    -0.13800
C366        C  0.34940412  0.26157613  0.39909843    -0.13500
C367        C  0.35783245  0.25649295  0.38179685     0.25300
C368        C  0.37355375  0.25232278  0.38242743    -0.18900
C369        C  0.38169617  0.24808173  0.36547022    -0.07400
C370        C  0.37420826  0.24801185  0.34761237    -0.03500
C371        C  0.35834556  0.25189931  0.34723297    -0.08800
C372        C  0.35025503  0.25613659  0.36418221    -0.16400
H373        H  0.29417439  0.26679507  0.44022039     0.11700
H374        H  0.31200645  0.25382544  0.41478598     0.11000
H375        H  0.34852361  0.29348787  0.44563112     0.11000
H376        H  0.33077066  0.30635923  0.47130622     0.11500
H377        H  0.37953768  0.25254832  0.39600383     0.11500
H378        H  0.39384908  0.24514365  0.36643773     0.11500
H379        H  0.35209460  0.25187850  0.33389513     0.11700
H380        H  0.33807584  0.25931651  0.36352806     0.10500
C381        C  0.29027979  0.58408722  0.99810294    -0.03300
C382        C  0.27662275  0.56957444  0.00118649    -0.09100
C383        C  0.27685864  0.54212492  0.00754138    -0.16800
C384        C  0.29072399  0.52880555  0.01090177     0.25400
C385        C  0.30437327  0.54308960  0.00797448    -0.18400
C386        C  0.30416658  0.57055404  0.00161950    -0.07300
C387        C  0.29091127  0.50048138  0.01732066    -0.13800
C388        C  0.29082579  0.47677644  0.02275109    -0.13500
C389        C  0.29041319  0.44855683  0.02937339     0.25300
C390        C  0.30384658  0.43318356  0.03081106    -0.18900
C391        C  0.30342407  0.40583943  0.03740930    -0.07400
C392        C  0.28953212  0.39351496  0.04260565    -0.03500
C393        C  0.27609296  0.40913044  0.04106500    -0.08800
C394        C  0.27654577  0.43646760  0.03450387    -0.16400
H395        H  0.26576294  0.57926455  0.99832847     0.11700
H396        H  0.26622609  0.53123481  0.00971848     0.11000
H397        H  0.31517041  0.53300042  0.01058991     0.11000
H398        H  0.31486058  0.58127075  0.99958017     0.11500
H399        H  0.31464064  0.44232828  0.02684352     0.11500
H400        H  0.31392843  0.39423459  0.03826957     0.11500
H401        H  0.26526322  0.40033636  0.04521828     0.11700
H402        H  0.26608726  0.44821351  0.03351278     0.10500
C403        C  0.31004424  0.65600641  0.95288592    -0.03300
C404        C  0.31329653  0.63711730  0.93805300    -0.09100
C405        C  0.32306142  0.64450873  0.92316832    -0.16800
C406        C  0.32967670  0.67087758  0.92284430     0.25400
C407        C  0.32648751  0.68988846  0.93746003    -0.18400
C408        C  0.31673745  0.68251511  0.95241029    -0.07300
C409        C  0.33956492  0.67840358  0.90733785    -0.13800
C410        C  0.34751190  0.68380601  0.89382091    -0.13500
C411        C  0.35644432  0.68902430  0.87699816     0.25300
C412        C  0.37171278  0.69685297  0.87860039    -0.18900
C413        C  0.38046402  0.70083068  0.86211947    -0.07400
C414        C  0.37402131  0.69700249  0.84383562    -0.03500
C415        C  0.35858511  0.68952761  0.84243977    -0.08800
C416        C  0.34989165  0.68553491  0.85890339    -0.16400
H417        H  0.30811455  0.61674899  0.93779468     0.11700
H418        H  0.32538165  0.62970425  0.91184877     0.11000
H419        H  0.33154965  0.71037362  0.93731744     0.11000
H420        H  0.31458473  0.69741136  0.96370658     0.11500
H421        H  0.37688449  0.69963897  0.89256945     0.11500
H422        H  0.39224768  0.70682689  0.86374095     0.11500
H423        H  0.35322374  0.68616044  0.82868182     0.11700
H424        H  0.33808847  0.67939693  0.85751362     0.10500
C425        C  0.29003549  0.36281945  0.49938949    -0.03300
C426        C  0.30391532  0.37539771  0.50443335    -0.09100
C427        C  0.30429966  0.40290070  0.51077635    -0.16800
C428        C  0.29084039  0.41819750  0.51209982     0.25400
C429        C  0.27697094  0.40586037  0.50713125    -0.18400
C430        C  0.27655452  0.37832933  0.50083822    -0.07300
C431        C  0.29125441  0.44656870  0.51848563    -0.13800
C432        C  0.29138947  0.47036405  0.52379325    -0.13500
C433        C  0.29111801  0.49874517  0.53015787     0.25300
C434        C  0.27732947  0.51092534  0.53545667    -0.18900
C435        C  0.27696640  0.53843293  0.54172933    -0.07400
C436        C  0.29041644  0.55416529  0.54278568    -0.03500
C437        C  0.30423804  0.54176495  0.53739105    -0.08800
C438        C  0.30457223  0.51421296  0.53110574    -0.16400
H439        H  0.31444560  0.36385718  0.50365840     0.11700
H440        H  0.31508899  0.41222978  0.51463899     0.11000
H441        H  0.26648881  0.41754626  0.50805926     0.11000
H442        H  0.26573014  0.36928332  0.49684054     0.11500
H443        H  0.26685892  0.49910927  0.53483155     0.11500
H444        H  0.26619460  0.54725125  0.54606884     0.14700
H445        H  0.31475076  0.55344308  0.53787247     0.11700
H446        H  0.31530580  0.50499060  0.52698930     0.10500
C447        C  0.31173724  0.62976271  0.58429622    -0.03300
C448        C  0.31645349  0.61224713  0.59923661    -0.09100
C449        C  0.32672257  0.62171833  0.61304945    -0.16800
C450        C  0.33240832  0.64876857  0.61210850     0.25400
C451        C  0.32788360  0.66631387  0.59724039    -0.18400
C452        C  0.31761656  0.65687435  0.58338632    -0.07300
C453        C  0.34257513  0.65862649  0.62672079    -0.13800
C454        C  0.35065820  0.66619283  0.63964138    -0.13500
C455        C  0.35963126  0.67422889  0.65592841     0.25300
C456        C  0.37538734  0.67037712  0.65589548    -0.18900
C457        C  0.38393333  0.67673088  0.67224096    -0.07400
C458        C  0.37677348  0.68690366  0.68883684    -0.03500
C459        C  0.36095526  0.69125392  0.68851374    -0.08800
C460        C  0.35246242  0.68490712  0.67218677    -0.16400
H461        H  0.31193906  0.59143962  0.60049453     0.11700
H462        H  0.33009423  0.60804833  0.62458734     0.11000
H463        H  0.33222356  0.68730667  0.59641441     0.11000
H464        H  0.31431244  0.67072432  0.57193535     0.11500
H465        H  0.38102791  0.66203860  0.64336202     0.11500
H466        H  0.39605196  0.67302786  0.67197811     0.11500
H467        H  0.35505346  0.69941490  0.70087135     0.11700
H468        H  0.34026552  0.68799125  0.67233669     0.10500
C469        C  0.18498412  0.76914312  0.50092461    -0.03300
C470        C  0.18838385  0.76873827  0.52063116    -0.09100
C471        C  0.19976786  0.75138017  0.52772371    -0.16800
C472        C  0.20788331  0.73422132  0.51522806     0.25400
C473        C  0.20454857  0.73437432  0.49562065    -0.18400
C474        C  0.19315856  0.75170286  0.48849511    -0.07300
C475        C  0.21963376  0.71643317  0.52248019    -0.13800
C476        C  0.22952827  0.70125759  0.52810426    -0.13500
C477        C  0.24141411  0.68280035  0.53408667     0.25300
C478        C  0.24863191  0.66593994  0.52055527    -0.18900
C479        C  0.26027204  0.64807471  0.52620269    -0.07400
C480        C  0.26485339  0.64688864  0.54548584    -0.03500
C481        C  0.25747907  0.66383120  0.55902120    -0.08800
C482        C  0.24582191  0.68168445  0.55333606    -0.16400
H483        H  0.18216206  0.78171348  0.53056910     0.11700
H484        H  0.20223683  0.75134541  0.54293456     0.11000
H485        H  0.21080348  0.72119714  0.48582811     0.11000
H486        H  0.19093831  0.75184867  0.47323534     0.11500
H487        H  0.24531184  0.66670684  0.50561311     0.11500
H488        H  0.26586198  0.63551956  0.51544274     0.11500
H489        H  0.26063437  0.66307941  0.57401071     0.11700
H490        H  0.24025994  0.69459629  0.56393091     0.10500
C491        C  0.07611902  0.74396562  0.34897178    -0.03300
C492        C  0.09206554  0.74164571  0.34903551    -0.09100
C493        C  0.10035315  0.74604254  0.36584236    -0.16800
C494        C  0.09287918  0.75273975  0.38288205     0.25400
C495        C  0.07700912  0.75470311  0.38311472    -0.18400
C496        C  0.06866326  0.75028437  0.36627830    -0.07300
C497        C  0.10166822  0.75847282  0.39984195    -0.13800
C498        C  0.10986336  0.76416101  0.41314373    -0.13500
C499        C  0.12034242  0.77228303  0.42798437     0.25300
C500        C  0.12413554  0.75393390  0.44274115    -0.18900
C501        C  0.13448832  0.76197802  0.45696439    -0.07400
C502        C  0.14117518  0.78849868  0.45656130    -0.03500
C503        C  0.13738680  0.80661666  0.44152284    -0.08800
C504        C  0.12702996  0.79857459  0.42739063    -0.16400
H505        H  0.09822566  0.73651237  0.33611962     0.11700
H506        H  0.11263429  0.74447245  0.36549605     0.11000
H507        H  0.07110521  0.75998156  0.39623024     0.11000
H508        H  0.05643451  0.75238078  0.36679728     0.11500
H509        H  0.11906363  0.73347488  0.44328737     0.11500
H510        H  0.13705866  0.74765418  0.46843144     0.11500
H511        H  0.14254893  0.82695169  0.44056197     0.11700
H512        H  0.12428895  0.81284398  0.41593508     0.10500
C513        C  0.18630386  0.79826490  0.04401733    -0.03300
C514        C  0.19038778  0.79943387  0.02455522    -0.09100
C515        C  0.20207183  0.78269749  0.01745461    -0.16800
C516        C  0.20983571  0.76466134  0.02971215     0.25400
C517        C  0.20580759  0.76327649  0.04906833    -0.18400
C518        C  0.19410895  0.77992817  0.05618459    -0.07300
C519        C  0.22194591  0.74757509  0.02249129    -0.13800
C520        C  0.23207187  0.73296126  0.01673985    -0.13500
C521        C  0.24403660  0.71503525  0.01013309     0.25300
C522        C  0.25203100  0.69859778  0.02319940    -0.18900
C523        C  0.26339833  0.68063704  0.01676680    -0.07400
C524        C  0.26691572  0.67888198  0.99714627    -0.03500
C525        C  0.25891125  0.69570251  0.98414593    -0.08800
C526        C  0.24754461  0.71364268  0.99061291    -0.16400
H527        H  0.18446624  0.81314039  0.01481652     0.11700
H528        H  0.20506172  0.78385464  0.00242863     0.11000
H529        H  0.21176131  0.74941833  0.05868587     0.11000
H530        H  0.19134400  0.77883061  0.07127295     0.11500
H531        H  0.24942793  0.69956428  0.03835050     0.11500
H532        H  0.26948538  0.66820724  0.02714092     0.11500
H533        H  0.26120714  0.69454715  0.96893265     0.11700
H534        H  0.24139134  0.72621312  0.98036868     0.10500
C535        C  0.14122660  0.81233473  0.08685464    -0.03300
C536        C  0.14619642  0.79426611  0.10136036    -0.09100
C537        C  0.13608674  0.78480347  0.11531315    -0.16800
C538        C  0.12087715  0.79321845  0.11497496     0.25400
C539        C  0.11576665  0.81094986  0.10050363    -0.18400
C540        C  0.12585945  0.82042633  0.08650787    -0.07300
C541        C  0.11070020  0.78436319  0.12987725    -0.13800
C542        C  0.10272937  0.77747750  0.14306959    -0.13500
C543        C  0.09399292  0.77007774  0.15970405     0.25300
C544        C  0.07815776  0.76782724  0.15865757    -0.18900
C545        C  0.06973032  0.76169430  0.17510798    -0.07400
C546        C  0.07704808  0.75776878  0.19286457    -0.03500
C547        C  0.09301573  0.75971407  0.19361696    -0.08800
C548        C  0.10138671  0.76583757  0.17718304    -0.16400
H549        H  0.15798842  0.78797911  0.10220273     0.11700
H550        H  0.14018505  0.77122433  0.12652299     0.11000
H551        H  0.10401450  0.81761148  0.10011707     0.11000
H552        H  0.12163787  0.83402321  0.07539766     0.11500
H553        H  0.07231085  0.77108092  0.14517991     0.11500
H554        H  0.05750448  0.76032963  0.17386285     0.11500
H555        H  0.09914686  0.75673129  0.20687447     0.11700
H556        H  0.11364626  0.76752168  0.17815970     0.10500
C557        C  0.26433833  0.30031459  0.04452876    -0.03300
C558        C  0.25980603  0.29940980  0.02518752    -0.09100
C559        C  0.24787257  0.28216011  0.01933624    -0.16800
C560        C  0.24030274  0.26558503  0.03270796     0.25400
C561        C  0.24477586  0.26622038  0.05195460    -0.18400
C562        C  0.25671078  0.28344609  0.05783923    -0.07300
C563        C  0.22800854  0.24783565  0.02666129    -0.13800
C564        C  0.21785239  0.23272920  0.02148928    -0.13500
C565        C  0.20597408  0.21426401  0.01514946     0.25300
C566        C  0.19897091  0.19633617  0.02817047    -0.18900
C567        C  0.18771187  0.17790496  0.02192897    -0.07400
C568        C  0.18329760  0.17713910  0.00254023    -0.03500
C569        C  0.19033376  0.19539747  0.98958879    -0.08800
C570        C  0.20159254  0.21381303  0.99586651    -0.16400
H571        H  0.26557115  0.31188184  0.01455934     0.11700
H572        H  0.24455707  0.28174371  0.00438404     0.11000
H573        H  0.23899060  0.25349727  0.06243562     0.11000
H574        H  0.25978387  0.28394993  0.07286026     0.11500
H575        H  0.20224445  0.19653966  0.04313890     0.11500
H576        H  0.18236020  0.16442443  0.03230848     0.11500
H577        H  0.18732372  0.19510303  0.97454449     0.11700
H578        H  0.20697250  0.22753214  0.98564524     0.10500
C579        C  0.15971639  0.08245219  0.00437154    -0.03300
C580        C  0.14601349  0.07003189  0.01020247    -0.09100
C581        C  0.14591241  0.04298340  0.01738147    -0.16800
C582        C  0.15948181  0.02799238  0.01874554     0.25400
C583        C  0.17315097  0.04013225  0.01287289    -0.18400
C584        C  0.17328552  0.06719544  0.00576234    -0.07300
C585        C  0.15940554  0.00003383  0.02590804    -0.13800
C586        C  0.15965458  0.97636036  0.03140408    -0.13500
C587        C  0.16026797  0.94775094  0.03716061     0.25300
C588        C  0.16370342  0.92727185  0.02362650    -0.18900
C589        C  0.16432377  0.89943484  0.02904587    -0.07400
C590        C  0.16154066  0.89166015  0.04813547    -0.03500
C591        C  0.15815353  0.91244063  0.06167629    -0.08800
C592        C  0.15750707  0.94029488  0.05620252    -0.16400
H593        H  0.13542040  0.08138408  0.00944120     0.11700
H594        H  0.13526372  0.03377852  0.02186674     0.11000
H595        H  0.18370489  0.02865386  0.01374947     0.11000
H596        H  0.18396817  0.07609493  0.00113953     0.11500
H597        H  0.16584479  0.93281315  0.00884346     0.11500
H598        H  0.16676402  0.88395261  0.01822734     0.11500
H599        H  0.15619348  0.90721601  0.07654203     0.11700
H600        H  0.15490480  0.95599835  0.06682190     0.10500
C601        C  0.07317451  0.18809397  0.85199671    -0.03300
C602        C  0.06548920  0.18744118  0.86968338    -0.09100
C603        C  0.07357779  0.18470141  0.88686701    -0.16800
C604        C  0.08943685  0.18260637  0.88661949     0.25400
C605        C  0.09717506  0.18340191  0.86915858    -0.18400
C606        C  0.08914248  0.18612833  0.85199797    -0.07300
C607        C  0.09789482  0.17902708  0.90411376    -0.13800
C608        C  0.10591124  0.17522969  0.91788907    -0.13500
C609        C  0.11645504  0.16967630  0.93320029     0.25300
C610        C  0.13170699  0.17745840  0.93128920    -0.18900
C611        C  0.14224898  0.17056363  0.94549366    -0.07400
C612        C  0.13768153  0.15563929  0.96178188    -0.03500
C613        C  0.12227855  0.14829309  0.96374700    -0.08800
C614        C  0.11173251  0.15530268  0.94954032    -0.16400
H615        H  0.05324593  0.18902875  0.87033722     0.11700
H616        H  0.06745992  0.18408171  0.90031457     0.11000
H617        H  0.10945060  0.18171173  0.86878826     0.11000
H618        H  0.09552327  0.18639893  0.83878565     0.11500
H619        H  0.13550817  0.18842401  0.91864476     0.11500
H620        H  0.15405458  0.17621840  0.94348922     0.11500
H621        H  0.11841946  0.13705536  0.97623767     0.11700
H622        H  0.09995943  0.14914405  0.95116158     0.10500
C623        C  0.26596925  0.26859053  0.49966067    -0.03300
C624        C  0.26966392  0.24137218  0.50514903    -0.09100
C625        C  0.25844576  0.22357502  0.51224886    -0.16800
C626        C  0.24339951  0.23270876  0.51386615     0.25400
C627        C  0.23960783  0.25966831  0.50827564    -0.18400
C628        C  0.25080660  0.27751249  0.50124642    -0.07300
C629        C  0.23183621  0.21452846  0.52130096    -0.13800
C630        C  0.22202168  0.19952790  0.52746390    -0.13500
C631        C  0.21027942  0.18151216  0.53463884     0.25300
C632        C  0.19573046  0.19192072  0.53838376    -0.18900
C633        C  0.18427404  0.17428194  0.54506209    -0.07400
C634        C  0.18723305  0.14595826  0.54805285    -0.03500
C635        C  0.20193657  0.13577984  0.54438980    -0.08800
C636        C  0.21335605  0.15343268  0.53771939    -0.16400
H637        H  0.28126960  0.23403649  0.50426178     0.11700
H638        H  0.26151768  0.20275915  0.51655514     0.11000
H639        H  0.22799302  0.26692553  0.50938789     0.11000
H640        H  0.24759893  0.29823617  0.49691067     0.11500
H641        H  0.19321232  0.21362129  0.53601245     0.11500
H642        H  0.17304135  0.18268477  0.54754631     0.11500
H643        H  0.20464616  0.11418505  0.54683097     0.11700
H644        H  0.22458322  0.14516055  0.53493724     0.10500
C645        C  0.16183678  0.05308253  0.54547608    -0.03300
C646        C  0.14772949  0.04048797  0.54154772    -0.09100
C647        C  0.14708531  0.01350188  0.53421154    -0.16800
C648        C  0.16051262  0.99881634  0.53073252     0.25400
C649        C  0.17457906  0.01118394  0.53455203    -0.18400
C650        C  0.17525262  0.03811195  0.54188354    -0.07300
C651        C  0.15994131  0.97087639  0.52357495    -0.13800
C652        C  0.15993849  0.94725366  0.51795111    -0.13500
C653        C  0.16032751  0.91889200  0.51163243     0.25300
C654        C  0.17427979  0.90602410  0.50803248    -0.18900
C655        C  0.17470620  0.87837741  0.50205015    -0.07400
C656        C  0.16115529  0.86326302  0.49959380    -0.03500
C657        C  0.14718756  0.87637228  0.50329808    -0.08800
C658        C  0.14679019  0.90402486  0.50928033    -0.16400
H659        H  0.13721790  0.05159512  0.54397084     0.11700
H660        H  0.13613451  0.00408924  0.53129174     0.11000
H661        H  0.18503381  0.99992769  0.53200033     0.11000
H662        H  0.18627201  0.04705847  0.54503643     0.11500
H663        H  0.18482378  0.91738030  0.50980241     0.11500
H664        H  0.18561259  0.86895770  0.49904880     0.11500
H665        H  0.13658663  0.86515773  0.50174586     0.11700
H666        H  0.13593721  0.91377667  0.51212068     0.10500
C667        C  0.07673249  0.17605637  0.69672613    -0.03300
C668        C  0.09269959  0.17784534  0.69771981    -0.09100
C669        C  0.10164418  0.17114889  0.68186607    -0.16800
C670        C  0.09482149  0.16263644  0.66473949     0.25400
C671        C  0.07897404  0.16102023  0.66346948    -0.18400
C672        C  0.06997741  0.16769680  0.67933423    -0.07300
C673        C  0.10416173  0.15529560  0.64861100    -0.13800
C674        C  0.11241440  0.14900984  0.63554054    -0.13500
C675        C  0.12264009  0.14133624  0.62036792     0.25300
C676        C  0.11729943  0.12629492  0.60456526    -0.18900
C677        C  0.12730061  0.11848507  0.58997979    -0.07400
C678        C  0.14279569  0.12564541  0.59101701    -0.03500
C679        C  0.14803913  0.14083699  0.60694736    -0.08800
C680        C  0.13801892  0.14860782  0.62151857    -0.16400
H681        H  0.09839262  0.18432620  0.71071065     0.11700
H682        H  0.11390690  0.17250664  0.68300230     0.11000
H683        H  0.07357116  0.15443872  0.65025906     0.11000
H684        H  0.05777297  0.16600918  0.67794408     0.11500
H685        H  0.10541341  0.12057303  0.60352669     0.11500
H686        H  0.12289465  0.10706271  0.57780309     0.11500
H687        H  0.15993351  0.14630117  0.60830105     0.11700
H688        H  0.14228510  0.16013448  0.63373920     0.10500
C689        C  0.63888646  0.28587005  0.45901468    -0.03300
C690        C  0.64426541  0.27223764  0.44255264    -0.09100
C691        C  0.63429438  0.26519809  0.42774211    -0.16800
C692        C  0.61883593  0.27156460  0.42924503     0.25400
C693        C  0.61332092  0.28467553  0.44573085    -0.18400
C694        C  0.62329726  0.29183944  0.46054791    -0.07300
C695        C  0.60880822  0.26557451  0.41350977    -0.13800
C696        C  0.60094526  0.26118997  0.39969504    -0.13500
C697        C  0.59219789  0.25665804  0.38257214     0.25300
C698        C  0.57644320  0.26050390  0.38267272    -0.18900
C699        C  0.56805281  0.25692318  0.36581304    -0.07400
C700        C  0.57535858  0.24958573  0.34861813    -0.03500
C701        C  0.59119410  0.24552579  0.34874544    -0.08800
C702        C  0.59953878  0.24903202  0.36561436    -0.16400
H703        H  0.65625049  0.26774740  0.44090274     0.11700
H704        H  0.63867970  0.25519615  0.41498782     0.11000
H705        H  0.60136618  0.28969658  0.44701228     0.11000
H706        H  0.61887149  0.30215090  0.47315328     0.11500
H707        H  0.57066614  0.26652069  0.39572880     0.11500
H708        H  0.55591722  0.26043216  0.36620843     0.11500
H709        H  0.59717448  0.23957519  0.33585068     0.11700
H710        H  0.61173707  0.24598650  0.36539638     0.10500
C711        C  0.63708586  0.31464159  0.08396710    -0.03300
C712        C  0.64218378  0.29898876  0.09968457    -0.09100
C713        C  0.63204810  0.29085661  0.11400454    -0.16800
C714        C  0.61669190  0.29817554  0.11279893     0.25400
C715        C  0.61144599  0.31332982  0.09706111    -0.18400
C716        C  0.62157109  0.32151267  0.08272012    -0.07300
C717        C  0.60651683  0.29100530  0.12811798    -0.13800
C718        C  0.59867970  0.28544301  0.14172147    -0.13500
C719        C  0.59027304  0.27921355  0.15883312     0.25300
C720        C  0.57493162  0.27167514  0.15783415    -0.18900
C721        C  0.56690078  0.26558712  0.17459594    -0.07400
C722        C  0.57414074  0.26695496  0.19258638    -0.03500
C723        C  0.58957191  0.27463544  0.19336278    -0.08800
C724        C  0.59754915  0.28070287  0.17661987    -0.16400
H725        H  0.65408415  0.29371401  0.10118968     0.11700
H726        H  0.63623953  0.27925659  0.12618305     0.11000
H727        H  0.59957868  0.31910365  0.09598846     0.11000
H728        H  0.61729204  0.33328968  0.07068402     0.11500
H729        H  0.56918899  0.27044582  0.14411627     0.11500
H730        H  0.55508564  0.25963506  0.17337977     0.11500
H731        H  0.59554364  0.27619632  0.20686814     0.11700
H732        H  0.60941708  0.28658644  0.17755761     0.10500
C733        C  0.65641813  0.58586963  0.00620050    -0.03300
C734        C  0.66992388  0.57080637  0.00907363    -0.09100
C735        C  0.66941737  0.54315684  0.01501392    -0.16800
C736        C  0.65543183  0.53011586  0.01817756     0.25400
C737        C  0.64193294  0.54499218  0.01561168    -0.18400
C738        C  0.64240946  0.57267460  0.00967289    -0.07300
C739        C  0.65499283  0.50133486  0.02366312    -0.13800
C740        C  0.65507035  0.47711758  0.02797256    -0.13500
C741        C  0.65569786  0.44818434  0.03302316     0.25300
C742        C  0.64235034  0.43244086  0.03410455    -0.18900
C743        C  0.64301267  0.40443811  0.03923017    -0.07400
C744        C  0.65705925  0.39179015  0.04331719    -0.03500
C745        C  0.67041353  0.40774130  0.04201996    -0.08800
C746        C  0.66972148  0.43572870  0.03692458    -0.16400
H747        H  0.68088314  0.58018512  0.00629046     0.11700
H748        H  0.67994069  0.53184184  0.01690734     0.11000
H749        H  0.63103821  0.53515038  0.01807591     0.11000
H750        H  0.63182298  0.58378510  0.00785141     0.11500
H751        H  0.63143410  0.44181910  0.03104514     0.11500
H752        H  0.63255198  0.39263348  0.03991693     0.11500
H753        H  0.68136683  0.39872832  0.04534173     0.11700
H754        H  0.68012506  0.44771148  0.03616347     0.10500
C755        C  0.63653601  0.66069366  0.96294738    -0.03300
C756        C  0.64169579  0.67708870  0.94761929    -0.09100
C757        C  0.63169633  0.68544423  0.93317241    -0.16800
C758        C  0.61639707  0.67755589  0.93377921     0.25400
C759        C  0.61110714  0.66138689  0.94900901    -0.18400
C760        C  0.62109811  0.65301216  0.96350839    -0.07300
C761        C  0.60637397  0.68511406  0.91830406    -0.13800
C762        C  0.59873129  0.69067411  0.90446798    -0.13500
C763        C  0.59056814  0.69604214  0.88695150     0.25300
C764        C  0.57467209  0.69536885  0.88653220    -0.18900
C765        C  0.56689279  0.69879082  0.86918155    -0.07400
C766        C  0.57492340  0.70284685  0.85195674    -0.03500
C767        C  0.59090521  0.70417608  0.85268773    -0.08800
C768        C  0.59863477  0.70075649  0.87002650    -0.16400
H769        H  0.65354315  0.68297501  0.94656368     0.11700
H770        H  0.63595290  0.69774898  0.92137527     0.11000
H771        H  0.59929520  0.65507914  0.94960517     0.11000
H772        H  0.61673668  0.64066096  0.97520641     0.11500
H773        H  0.56829458  0.69172307  0.89954856     0.11500
H774        H  0.55462236  0.69770239  0.86930761     0.11500
H775        H  0.59754042  0.70751888  0.83988388     0.11700
H776        H  0.61094556  0.70135148  0.87017082     0.10500
C777        C  0.66073144  0.55105409  0.54574890    -0.03300
C778        C  0.67395942  0.53509835  0.54331643    -0.09100
C779        C  0.67300917  0.50776604  0.53678147    -0.16800
C780        C  0.65884909  0.49601327  0.53256890     0.25400
C781        C  0.64560492  0.51168739  0.53493374    -0.18400
C782        C  0.64652705  0.53905659  0.54150763    -0.07300
C783        C  0.65800920  0.46784841  0.52586557    -0.13800
C784        C  0.65789623  0.44416554  0.52034890    -0.13500
C785        C  0.65832678  0.41584960  0.51390752     0.25300
C786        C  0.64506075  0.39981756  0.51379178    -0.18900
C787        C  0.64553323  0.37225174  0.50760753    -0.07400
C788        C  0.65931538  0.36038853  0.50159074    -0.03500
C789        C  0.67259533  0.37661306  0.50179990    -0.08800
C790        C  0.67208282  0.40421787  0.50787638    -0.16400
H791        H  0.68502763  0.54365142  0.54671826     0.11700
H792        H  0.68332215  0.49576972  0.53506266     0.11000
H793        H  0.63458650  0.50278218  0.53167556     0.11000
H794        H  0.63616777  0.55093994  0.54305777     0.11500
H795        H  0.63436771  0.40861158  0.51848185     0.11500
H796        H  0.63517172  0.36010767  0.50767147     0.11500
H797        H  0.68330748  0.36804381  0.49699539     0.11700
H798        H  0.68240673  0.41648619  0.50787053     0.10500
C799        C  0.64233720  0.62701924  0.58913049    -0.03300
C800        C  0.63706727  0.65458294  0.58920415    -0.09100
C801        C  0.62720761  0.66387887  0.60354450    -0.16800
C802        C  0.62241118  0.64575747  0.61794390     0.25400
C803        C  0.62752675  0.61831970  0.61797824    -0.18400
C804        C  0.63744413  0.60902019  0.60373964    -0.07300
C805        C  0.61251206  0.65532483  0.63295731    -0.13800
C806        C  0.60459672  0.66254951  0.64613389    -0.13500
C807        C  0.59569530  0.67026151  0.66258061     0.25300
C808        C  0.60296006  0.67937561  0.67927933    -0.18900
C809        C  0.59445984  0.68589075  0.69556601    -0.07400
C810        C  0.57851503  0.68335130  0.69541748    -0.03500
C811        C  0.57130570  0.67441967  0.67845039    -0.08800
C812        C  0.57984993  0.66790402  0.66216684    -0.16400
H813        H  0.64041049  0.66889412  0.57805770     0.11700
H814        H  0.62332273  0.68518131  0.60338901     0.11000
H815        H  0.62396377  0.60415997  0.62913172     0.11000
H816        H  0.64147316  0.58785079  0.60438511     0.11500
H817        H  0.61522790  0.68125458  0.67976530     0.11500
H818        H  0.60044980  0.69288623  0.70822200     0.11500
H819        H  0.55909670  0.67206121  0.67774134     0.11700
H820        H  0.57410638  0.66076751  0.64932527     0.10500
C821        C  0.68148780  0.67947887  0.00541154    -0.03300
C822        C  0.69638589  0.66952285  0.00790467    -0.09100
C823        C  0.70801196  0.68730786  0.01393383    -0.16800
C824        C  0.70493990  0.71527732  0.01757167     0.25400
C825        C  0.69017067  0.72543970  0.01508831    -0.18400
C826        C  0.67851359  0.70767775  0.00904257    -0.07300
C827        C  0.71693455  0.73337470  0.02405867    -0.13800
C828        C  0.72710168  0.74810945  0.02968453    -0.13500
C829        C  0.73925279  0.76560708  0.03648641     0.25300
C830        C  0.73640884  0.79342462  0.04088277    -0.18900
C831        C  0.74821224  0.81057612  0.04721815    -0.07400
C832        C  0.76306716  0.80015059  0.04921782    -0.03500
C833        C  0.76578156  0.77204636  0.04501926    -0.08800
C834        C  0.75394323  0.75491278  0.03866713    -0.16400
H835        H  0.69909643  0.64805079  0.00493705     0.11700
H836        H  0.71940738  0.67923200  0.01575388     0.11000
H837        H  0.68764986  0.74704350  0.01791149     0.11000
H838        H  0.66714078  0.71591360  0.00744272     0.11500
H839        H  0.72507170  0.80189077  0.03935997     0.11500
H840        H  0.74570540  0.83199414  0.05063534     0.11500
H841        H  0.77710932  0.76347796  0.04625132     0.11700
H842        H  0.75627173  0.73339465  0.03531291     0.10500
C843        C  0.81009711  0.81809117  0.08839253    -0.03300
C844        C  0.81496921  0.83582701  0.10323297    -0.09100
C845        C  0.82548835  0.82667897  0.11685335    -0.16800
C846        C  0.83130811  0.79972507  0.11584142     0.25400
C847        C  0.82667619  0.78203069  0.10101522    -0.18400
C848        C  0.81614696  0.79113157  0.08737618    -0.07300
C849        C  0.84158391  0.78998165  0.13042931    -0.13800
C850        C  0.84963912  0.78216998  0.14333178    -0.13500
C851        C  0.85852707  0.77353444  0.15960332     0.25300
C852        C  0.87426722  0.77778747  0.15998264    -0.18900
C853        C  0.88269789  0.77073873  0.17628366    -0.07400
C854        C  0.87545233  0.75950974  0.19247099    -0.03500
C855        C  0.85967239  0.75483086  0.19177441    -0.08800
C856        C  0.85129302  0.76177541  0.17545809    -0.16400
H857        H  0.81038980  0.85656403  0.10457042     0.11700
H858        H  0.82892415  0.84051059  0.12832726     0.11000
H859        H  0.83110241  0.76112330  0.10008660     0.11000
H860        H  0.81277499  0.77712308  0.07599004     0.11500
H861        H  0.87998715  0.78694327  0.14780630     0.11500
H862        H  0.89479795  0.77475903  0.17635494     0.11500
H863        H  0.85375070  0.74588553  0.20384469     0.11700
H864        H  0.83912206  0.75832497  0.17531733     0.10500
C865        C  0.68654113  0.64359967  0.54503600    -0.03300
C866        C  0.70139225  0.63363924  0.54217968    -0.09100
C867        C  0.71270111  0.65104232  0.53489465    -0.16800
C868        C  0.70932444  0.67858580  0.53031074     0.25400
C869        C  0.69456743  0.68866364  0.53304765    -0.18400
C870        C  0.68324772  0.67131321  0.54039785    -0.07300
C871        C  0.72105701  0.69657324  0.52306551    -0.13800
C872        C  0.73098537  0.71167358  0.51731183    -0.13500
C873        C  0.74288261  0.72988147  0.51078233     0.25300
C874        C  0.73935673  0.75667345  0.50455349    -0.18900
C875        C  0.75091072  0.77453441  0.49850036    -0.07400
C876        C  0.76615355  0.76576502  0.49850773    -0.03500
C877        C  0.76959620  0.73876972  0.50469299    -0.08800
C878        C  0.75802756  0.72098014  0.51084849    -0.16400
H879        H  0.70429892  0.61248579  0.54580967     0.11700
H880        H  0.72409352  0.64304393  0.53291148     0.11000
H881        H  0.69181599  0.70993510  0.52952646     0.11000
H882        H  0.67187443  0.67944384  0.54223584     0.11500
H883        H  0.72768041  0.76378126  0.50441223     0.11500
H884        H  0.74792879  0.79511648  0.49361709     0.11500
H885        H  0.78125081  0.73158949  0.50500858     0.11700
H886        H  0.76089802  0.70032697  0.51571012     0.10500
C887        C  0.81239853  0.78429738  0.45836212    -0.03300
C888        C  0.82753048  0.79383931  0.45912217    -0.09100
C889        C  0.83796265  0.78620605  0.44494559    -0.16800
C890        C  0.83345195  0.76884070  0.42987484     0.25400
C891        C  0.81853366  0.75880790  0.42920198    -0.18400
C892        C  0.80808037  0.76646806  0.44330519    -0.07300
C893        C  0.84382358  0.76231089  0.41456563    -0.13800
C894        C  0.85172846  0.75739445  0.40086561    -0.13500
C895        C  0.86021450  0.75227062  0.38358179     0.25300
C896        C  0.85248914  0.74578575  0.36662122    -0.18900
C897        C  0.86052074  0.74199819  0.34956178    -0.07400
C898        C  0.87645031  0.74467430  0.34918160    -0.03500
C899        C  0.88415108  0.75071398  0.36640327    -0.08800
C900        C  0.87607258  0.75454386  0.38346794    -0.16400
H901        H  0.83129543  0.80726565  0.47064356     0.11700
H902        H  0.84948187  0.79412084  0.44561540     0.11000
H903        H  0.81488498  0.74549878  0.41754070     0.11000
H904        H  0.79649415  0.75908968  0.44207261     0.11500
H905        H  0.84021521  0.74393024  0.36653542     0.11500
H906        H  0.85419419  0.73705567  0.33670047     0.11500
H907        H  0.89637348  0.75307669  0.36668931     0.11700
H908        H  0.88217847  0.75962144  0.39650534     0.10500
C909        C  0.76441785  0.17705119  0.00023922    -0.03300
C910        C  0.76712697  0.20566383  0.00241695    -0.09100
C911        C  0.75550405  0.22340534  0.00850560    -0.16800
C912        C  0.74103027  0.21283303  0.01252714     0.25400
C913        C  0.73822143  0.18444509  0.01039504    -0.18400
C914        C  0.74979080  0.16669973  0.00426237    -0.07300
C915        C  0.72902900  0.23104459  0.01877471    -0.13800
C916        C  0.71886585  0.24605889  0.02397797    -0.13500
C917        C  0.70669377  0.26391785  0.03018960     0.25300
C918        C  0.69205156  0.25320489  0.03278863    -0.18900
C919        C  0.68024882  0.27051008  0.03888228    -0.07400
C920        C  0.68292831  0.29883304  0.04252588    -0.03500
C921        C  0.69769945  0.30938635  0.03982217    -0.08800
C922        C  0.70947114  0.29205255  0.03368328    -0.16400
H923        H  0.77827412  0.21428977  0.99966764     0.11700
H924        H  0.75782098  0.24534834  0.01013065     0.11000
H925        H  0.72705360  0.17602479  0.01338104     0.11000
H926        H  0.74720647  0.14490965  0.00240390     0.11500
H927        H  0.68974613  0.23147888  0.03007205     0.11500
H928        H  0.66899014  0.26176859  0.04054003     0.11500
H929        H  0.70022998  0.33094891  0.04276669     0.11700
H930        H  0.72076472  0.30057463  0.03176991     0.10500
C931        C  0.78869552  0.89273772  0.04627166    -0.03300
C932        C  0.80257859  0.90496894  0.04093894    -0.09100
C933        C  0.80300148  0.93225168  0.03422415    -0.16800
C934        C  0.78957621  0.94764216  0.03277308     0.25400
C935        C  0.77570122  0.93558064  0.03789130    -0.18400
C936        C  0.77524851  0.90831993  0.04458952    -0.07300
C937        C  0.79002051  0.97592423  0.02629336    -0.13800
C938        C  0.79011535  0.99971782  0.02105606    -0.13500
C939        C  0.78985247  0.02812447  0.01482416     0.25300
C940        C  0.77594538  0.04160207  0.01216245    -0.18900
C941        C  0.77560231  0.06903864  0.00580978    -0.07400
C942        C  0.78919732  0.08345304  0.00207539    -0.03500
C943        C  0.80313893  0.06977083  0.00496609    -0.08800
C944        C  0.80344808  0.04227953  0.01127738    -0.16400
H945        H  0.81308268  0.89337149  0.04182878     0.11700
H946        H  0.81379768  0.94136722  0.03023539     0.11000
H947        H  0.76524516  0.94732741  0.03686115     0.11000
H948        H  0.76441281  0.89959750  0.04879171     0.11500
H949        H  0.76535178  0.03081350  0.01482331     0.11500
H950        H  0.76467967  0.07875986  0.00343213     0.11500
H951        H  0.81380413  0.08036407  0.00245656     0.11700
H952        H  0.81428189  0.03205967  0.01335348     0.10500
C953        C  0.87182188  0.18998062  0.84570133    -0.03300
C954        C  0.87911234  0.18621998  0.86348913    -0.09100
C955        C  0.87061603  0.18257803  0.88021884    -0.16800
C956        C  0.85473045  0.18269924  0.87944779     0.25400
C957        C  0.84736449  0.18670135  0.86190968    -0.18400
C958        C  0.85581865  0.19034922  0.84517185    -0.07300
C959        C  0.84593110  0.17831045  0.89654190    -0.13800
C960        C  0.83813789  0.17420947  0.91044410    -0.13500
C961        C  0.82834637  0.16873134  0.92649859     0.25300
C962        C  0.81315224  0.17725213  0.92599733    -0.18900
C963        C  0.80340705  0.17090613  0.94117070    -0.07400
C964        C  0.80873723  0.15588415  0.95706619    -0.03500
C965        C  0.82410570  0.14779636  0.95756959    -0.08800
C966        C  0.83382918  0.15416159  0.94237302    -0.16400
H967        H  0.89136568  0.18572974  0.86455675     0.11700
H968        H  0.87644239  0.17946819  0.89372807     0.11000
H969        H  0.83506401  0.18686135  0.86114748     0.11000
H970        H  0.84974125  0.19336906  0.83187160     0.11500
H971        H  0.80877354  0.18843345  0.91373711     0.11500
H972        H  0.79160380  0.17707773  0.94021046     0.11500
H973        H  0.82859199  0.13649423  0.96970381     0.11700
H974        H  0.84557552  0.14748427  0.94292347     0.10500
C975        C  0.68423908  0.26692454  0.50028646    -0.03300
C976        C  0.69917780  0.27664645  0.50299242    -0.09100
C977        C  0.71066500  0.25856275  0.50884280    -0.16800
C978        C  0.70738520  0.23057046  0.51202143     0.25400
C979        C  0.69258633  0.22067285  0.50936538    -0.18400
C980        C  0.68107201  0.23872130  0.50357182    -0.07300
C981        C  0.71917823  0.21206884  0.51819117    -0.13800
C982        C  0.72910659  0.19679354  0.52356287    -0.13500
C983        C  0.74106358  0.17894513  0.53013651     0.25300
C984        C  0.73796106  0.15125565  0.53457590    -0.18900
C985        C  0.74960825  0.13393639  0.54100196    -0.07400
C986        C  0.76452964  0.14411893  0.54300745    -0.03500
C987        C  0.76750129  0.17202826  0.53852992    -0.08800
C988        C  0.75582927  0.18931462  0.53216229    -0.16400
H989        H  0.70203595  0.29812125  0.50030778     0.11700
H990        H  0.72210840  0.26639457  0.51083615     0.11000
H991        H  0.68993122  0.19904587  0.51186594     0.11000
H992        H  0.66965466  0.23066846  0.50188374     0.11500
H993        H  0.72653921  0.14308046  0.53312660     0.11500
H994        H  0.74690539  0.11267985  0.54460670     0.11500
H995        H  0.77889229  0.18039608  0.53966027     0.11700
H996        H  0.75833545  0.21072859  0.52873266     0.10500
C997        C  0.78973610  0.05110804  0.54308281    -0.03300
C998        C  0.80349720  0.03853992  0.53767886    -0.09100
C999        C  0.80372948  0.01094513  0.53149394    -0.16800
C1000       C  0.79023748  0.99557388  0.53068898     0.25400
C1001       C  0.77650566  0.00786931  0.53611306    -0.18400
C1002       C  0.77624199  0.03545043  0.54226491    -0.07300
C1003       C  0.79044714  0.96723827  0.52421229    -0.13800
C1004       C  0.79047378  0.94353811  0.51869555    -0.13500
C1005       C  0.79035807  0.91529300  0.51201750     0.25300
C1006       C  0.77660482  0.90250853  0.50710321    -0.18900
C1007       C  0.77645858  0.87507275  0.50060581    -0.07400
C1008       C  0.79009441  0.86004551  0.49893177    -0.03500
C1009       C  0.80386896  0.87311653  0.50386846    -0.08800
C1010       C  0.80398474  0.90055515  0.51037935    -0.16400
H1011       H  0.81402933  0.05017168  0.53797327     0.11700
H1012       H  0.81441528  0.00163569  0.52727665     0.11000
H1013       H  0.76600327  0.99613670  0.53559416     0.11000
H1014       H  0.76550843  0.04445677  0.54658044     0.11500
H1015       H  0.76599589  0.91376452  0.50825317     0.11500
H1016       H  0.76570022  0.86571757  0.49667220     0.11500
H1017       H  0.81452534  0.86199359  0.50294650     0.11700
H1018       H  0.81469272  0.91024315  0.51418078     0.10500
C1019       C  0.81138604  0.12889156  0.58246034    -0.03300
C1020       C  0.80675619  0.14480552  0.59831053    -0.09100
C1021       C  0.81739085  0.15415337  0.61171926    -0.16800
C1022       C  0.83279463  0.14781077  0.60947393     0.25400
C1023       C  0.83756597  0.13226938  0.59362634    -0.18400
C1024       C  0.82691841  0.12282327  0.58018731    -0.07300
C1025       C  0.84347183  0.15630800  0.62397604    -0.13800
C1026       C  0.85143176  0.16300495  0.63727641    -0.13500
C1027       C  0.85971544  0.17031093  0.65434519     0.25300
C1028       C  0.87555155  0.16792435  0.65501144    -0.18900
C1029       C  0.88339607  0.17375954  0.67201154    -0.07400
C1030       C  0.87546818  0.18195026  0.68859733    -0.03500
C1031       C  0.85956592  0.18474698  0.68761510    -0.08800
C1032       C  0.85177226  0.17893976  0.67062870    -0.16400
H1033       H  0.79485861  0.14948786  0.60057318     0.11700
H1034       H  0.81356499  0.16599578  0.62400369     0.11000
H1035       H  0.84946668  0.12720521  0.59177300     0.11000
H1036       H  0.83080637  0.11084065  0.56801168     0.11500
H1037       H  0.88181106  0.16118455  0.64249030     0.11500
H1038       H  0.89560705  0.17125512  0.67220405     0.11500
H1039       H  0.85306949  0.19130543  0.69995155     0.11700
H1040       H  0.83950633  0.18088060  0.67026335     0.10500
loop_ 
_geom_bond_atom_site_label_1 
_geom_bond_atom_site_label_2 
_geom_bond_distance 
_geom_bond_site_symmetry_2 
_ccdc_geom_bond_type 
C1            C2   1.405       .  A
C1            C6   1.404       .  A
C1         C1019   1.483       .  S
C2            C3   1.405       .  A
C2            H7   1.083       .  S
C3            C4   1.404       .  A
C3          C997   1.484       .  S
C4            C5   1.404       .  A
C4            H8   1.083       .  S
C5            C6   1.404       .  A
C5          C986   1.484       .  S
C6            H9   1.083       .  S
C10          C11   1.407       .  A
C10          C15   1.405       .  A
C10         C964   1.487       .  S
C11          C12   1.407       .  A
C11          H16   1.083       .  S
C12          C13   1.406   1_556  A
C12         C909   1.490   1_556  S
C13          C14   1.405   1_554  A
C13          H17   1.083       .  S
C14          C15   1.404       .  A
C14         C942   1.487   1_556  S
C15          H18   1.083       .  S
N19          N20   1.321       .  A
N19          C23   1.343       .  A
N19         Cu27   2.070       .  S
N20          C21   1.345       .  A
N20         Cu26   2.077       .  S
C21          C22   1.389       .  A
C21          H24   1.081       .  S
C22          C23   1.388       .  A
C22         C953   1.487       .  S
C23          H25   1.081       .  S
Cu26         N29   2.077       .  S
Cu27         N37   2.070       .  S
Cu28         N30   2.073       .  S
Cu28         N36   2.073       .  S
N29          N30   1.323       .  A
N29          C33   1.346       .  A
N30          C31   1.345       .  A
C31          C32   1.382       .  A
C31          H34   1.082       .  S
C32          C33   1.384       .  A
C32         C200   1.472       .  S
C33          H35   1.082       .  S
N36          N37   1.320       .  A
N36          C40   1.345       .  A
N37          C38   1.343       .  A
C38          C39   1.387       .  A
C38          H41   1.081       .  S
C39          C40   1.388       .  A
C39        C1030   1.485       .  S
C40          H42   1.081       .  S
C43          C44   1.407       .  A
C43          C48   1.407       .  A
C43         C887   1.490       .  S
C44          C45   1.405       .  A
C44          H49   1.083       .  S
C45          C46   1.404       .  A
C45        C1008   1.486       .  S
C46          C47   1.404       .  A
C46          H50   1.083       .  S
C47          C48   1.405       .  A
C47         C876   1.484       .  S
C48          H51   1.083       .  S
C52          C53   1.406       .  A
C52          C57   1.407       .  A
C52         C843   1.487       .  S
C53          C54   1.405       .  A
C53          H58   1.083       .  S
C54          C55   1.403       .  A
C54         C931   1.485       .  S
C55          C56   1.404       .  A
C55          H59   1.083       .  S
C56          C57   1.406       .  A
C56         C832   1.486       .  S
C57          H60   1.083       .  S
N61          N62   1.321       .  A
N61          C65   1.344       .  A
N61         Cu69   2.072       .  S
N62          C63   1.345       .  A
N62         Cu68   2.075       .  S
C63          C64   1.389       .  A
C63          H66   1.081       .  S
C64          C65   1.388       .  A
C64         C898   1.486       .  S
C65          H67   1.081       .  S
Cu68         N71   2.075       .  S
Cu69         N79   2.072       .  S
Cu70         N72   2.077       .  S
Cu70         N78   2.077       .  S
N71          N72   1.323       .  A
N71          C75   1.345       .  A
N72          C73   1.346       .  A
C73          C74   1.383       .  A
C73          H76   1.082       .  S
C74          C75   1.383       .  A
C74         C242   1.472       .  S
C75          H77   1.082       .  S
N78          N79   1.321       .  A
N78          C82   1.346       .  A
N79          C80   1.343       .  A
C80          C81   1.386       .  A
C80          H83   1.082       .  S
C81          C82   1.388       .  A
C81         C854   1.484       .  S
C82          H84   1.081       .  S
C85          C86   1.407       .  A
C85          C90   1.408       .  A
C85         C799   1.490       .  S
C86          C87   1.404       .  A
C86          H91   1.083       .  S
C87          C88   1.403       .  A
C87         C777   1.484       .  S
C88          C89   1.403       .  A
C88          H92   1.083       .  S
C89          C90   1.405       .  A
C89         C865   1.485       .  S
C90          H93   1.083       .  S
C94          C95   1.406       .  A
C94          C99   1.406       .  A
C94         C755   1.488       .  S
C95          C96   1.405       .  A
C95         H100   1.083       .  S
C96          C97   1.406   1_556  A
C96         C821   1.487   1_556  S
C97          C98   1.406   1_554  A
C97         H101   1.083       .  S
C98          C99   1.407       .  A
C98         C733   1.489   1_556  S
C99         H102   1.083       .  S
N103        N104   1.321       .  A
N103        C107   1.344       .  A
N103       Cu111   2.074       .  S
N104        C105   1.345       .  A
N104       Cu110   2.073       .  S
C105        C106   1.388       .  A
C105        H108   1.081       .  S
C106        C107   1.388       .  A
C106        C810   1.487       .  S
C107        H109   1.081       .  S
Cu110       N113   2.073       .  S
Cu111       N121   2.074       .  S
Cu112       N114   2.075       .  S
Cu112       N120   2.075       .  S
N113        N114   1.323       .  A
N113        C117   1.345       .  A
N114        C115   1.345       .  A
C115        C116   1.383       .  A
C115        H118   1.082       .  S
C116        C117   1.383       .  A
C116        C284   1.471       .  S
C117        H119   1.082       .  S
N120        N121   1.320       .  A
N120        C124   1.345       .  A
N121        C122   1.344       .  A
C122        C123   1.389       .  A
C122        H125   1.081       .  S
C123        C124   1.389       .  A
C123        C766   1.489       .  S
C124        H126   1.081       .  S
C127        C128   1.404       .  A
C127        C132   1.405       .  A
C127        C711   1.485       .  S
C128        C129   1.404       .  A
C128        H133   1.083       .  S
C129        C130   1.406       .  A
C129        C744   1.487       .  S
C130        C131   1.407       .  A
C130        H134   1.083       .  S
C131        C132   1.407       .  A
C131        C920   1.490       .  S
C132        H135   1.083       .  S
C136        C137   1.403       .  A
C136        C141   1.402       .  A
C136        C689   1.479       .  S
C137        C138   1.405       .  A
C137        H142   1.083       .  S
C138        C139   1.406       .  A
C138        C975   1.485       .  S
C139        C140   1.404       .  A
C139        H143   1.083       .  S
C140        C141   1.402       .  A
C140        C788   1.480       .  S
C141        H144   1.084       .  S
N145        N146   1.321       .  A
N145        C149   1.343       .  A
N145       Cu153   2.066       .  S
N146        C147   1.345       .  A
N146       Cu152   2.076       .  S
C147        C148   1.388       .  A
C147        H150   1.081       .  S
C148        C149   1.385       .  A
C148        C700   1.482       .  S
C149        H151   1.081       .  S
Cu152       N155   2.077       .  S
Cu153       N163   2.066       .  S
Cu154       N156   2.071       .  S
Cu154       N162   2.071       .  S
N155        N156   1.323       .  A
N155        C159   1.346       .  A
N156        C157   1.344       .  A
C157        C158   1.381       .  A
C157        H160   1.082       .  S
C158        C159   1.384       .  A
C158        C326   1.470       .  S
C159        H161   1.082       .  S
N162        N163   1.320       .  A
N162        C166   1.345       .  A
N163        C164   1.342       .  A
C164        C165   1.387       .  A
C164        H167   1.081       .  S
C165        C166   1.389       .  A
C165        C722   1.485       .  S
C166        H168   1.081       .  S
C169        C170   1.407       .  A
C169        C174   1.405       .  A
C169        C678   1.486       .  S
C170        C171   1.406       .  A
C170        H175   1.083       .  S
C171        C172   1.404       .  A
C171        C634   1.487       .  S
C172        C173   1.404       .  A
C172        H176   1.083       .  S
C173        C174   1.404       .  A
C173        C645   1.485       .  S
C174        H177   1.083       .  S
C178        C179   1.405       .  A
C178        C183   1.405       .  A
C178        C612   1.485       .  S
C179        C180   1.404       .  A
C179        H184   1.084       .  S
C180        C181   1.405   1_556  A
C180        C579   1.484   1_556  S
C181        C182   1.406   1_554  A
C181        H185   1.083       .  S
C182        C183   1.406       .  A
C182        C568   1.487   1_556  S
C183        H186   1.083       .  S
N187        N188   1.320       .  A
N187        C191   1.342       .  A
N187       Cu195   2.065       .  S
N188        C189   1.346       .  A
N188       Cu194   2.078       .  S
C189        C190   1.390       .  A
C189        H192   1.081       .  S
C190        C191   1.387       .  A
C190        C667   1.487       .  S
C191        H193   1.081       .  S
Cu194       N197   2.079       .  S
Cu195       N205   2.066       .  S
Cu196       N198   2.076       .  S
Cu196       N204   2.075       .  S
N197        N198   1.323       .  A
N197        C201   1.345   1_455  A
N198        C199   1.345   1_455  A
C199        C200   1.383       .  A
C199        H202   1.082       .  S
C200        C201   1.384       .  A
C201        H203   1.082       .  S
N204        N205   1.320       .  A
N204        C208   1.345       .  A
N205        C206   1.343       .  A
C206        C207   1.388       .  A
C206        H209   1.081       .  S
C207        C208   1.390       .  A
C207        C601   1.487       .  S
C208        H210   1.081       .  S
C211        C212   1.405       .  A
C211        C216   1.405       .  A
C211        C535   1.486       .  S
C212        C213   1.405       .  A
C212        H217   1.083       .  S
C213        C214   1.405       .  A
C213        C590   1.487       .  S
C214        C215   1.404       .  A
C214        H218   1.083       .  S
C215        C216   1.404       .  A
C215        C513   1.484       .  S
C216        H219   1.083       .  S
C220        C221   1.405       .  A
C220        C225   1.406       .  A
C220        C502   1.486       .  S
C221        C222   1.402       .  A
C221        H226   1.083       .  S
C222        C223   1.402       .  A
C222        C656   1.483       .  S
C223        C224   1.404       .  A
C223        H227   1.083       .  S
C224        C225   1.407       .  A
C224        C469   1.483       .  S
C225        H228   1.083       .  S
N229        N230   1.320       .  A
N229        C233   1.342       .  A
N229       Cu237   2.068       .  S
N230        C231   1.346       .  A
N230       Cu236   2.077       .  S
C231        C232   1.390       .  A
C231        H234   1.081       .  S
C232        C233   1.388       .  A
C232        C546   1.488       .  S
C233        H235   1.081       .  S
Cu236       N239   2.078       .  S
Cu237       N247   2.067       .  S
Cu238       N240   2.076       .  S
Cu238       N246   2.075       .  S
N239        N240   1.323       .  A
N239        C243   1.346   1_455  A
N240        C241   1.345   1_455  A
C241        C242   1.382       .  A
C241        H244   1.082       .  S
C242        C243   1.383       .  A
C243        H245   1.082       .  S
N246        N247   1.320       .  A
N246        C250   1.346       .  A
N247        C248   1.342       .  A
C248        C249   1.387       .  A
C248        H251   1.081       .  S
C249        C250   1.389       .  A
C249        C491   1.485       .  S
C250        H252   1.081       .  S
C253        C254   1.405       .  A
C253        C258   1.403       .  A
C253        C447   1.482       .  S
C254        C255   1.404       .  A
C254        H259   1.083       .  S
C255        C256   1.405       .  A
C255        C436   1.484       .  S
C256        C257   1.404       .  A
C256        H260   1.083       .  S
C257        C258   1.403       .  A
C257        C480   1.482       .  S
C258        H261   1.083       .  S
C262        C263   1.405       .  A
C262        C267   1.405       .  A
C262        C403   1.485       .  S
C263        C264   1.404       .  A
C263        H268   1.083       .  S
C264        C265   1.405       .  A
C264        C381   1.485       .  S
C265        C266   1.405       .  A
C265        H269   1.083   1_556  S
C266        C267   1.405       .  A
C266        C524   1.485       .  S
C267        H270   1.083       .  S
N271        N272   1.320       .  A
N271        C275   1.340       .  A
N271       Cu279   2.056       .  S
N272        C273   1.346       .  A
N272       Cu278   2.076       .  S
C273        C274   1.390       .  A
C273        H276   1.081       .  S
C274        C275   1.384       .  A
C274        C458   1.482       .  S
C275        H277   1.081       .  S
Cu278       N281   2.077       .  S
Cu279       N289   2.056       .  S
Cu280       N282   2.077       .  S
Cu280       N288   2.076       .  S
N281        N282   1.324       .  A
N281        C285   1.345       .  A
N282        C283   1.345       .  A
C283        C284   1.383       .  A
C283        H286   1.082       .  S
C284        C285   1.382       .  A
C285        H287   1.082       .  S
N288        N289   1.320       .  A
N288        C292   1.346       .  A
N289        C290   1.341       .  A
C290        C291   1.385       .  A
C290        H293   1.081       .  S
C291        C292   1.389       .  A
C291        C414   1.482       .  S
C292        H294   1.081       .  S
C295        C296   1.406       .  A
C295        C300   1.404       .  A
C295        C359   1.484       .  S
C296        C297   1.405       .  A
C296        H301   1.083       .  S
C297        C298   1.405       .  A
C297        C623   1.485       .  S
C298        C299   1.404       .  A
C298        H302   1.083       .  S
C299        C300   1.404       .  A
C299        C425   1.484       .  S
C300        H303   1.084       .  S
C304        C305   1.406       .  A
C304        C309   1.407       .  A
C304        C337   1.489       .  S
C305        C306   1.404       .  A
C305        H310   1.083       .  S
C306        C307   1.404       .  A
C306        C392   1.485       .  S
C307        C308   1.405       .  A
C307        H311   1.083       .  S
C308        C309   1.406       .  A
C308        C557   1.487       .  S
C309        H312   1.083       .  S
N313        N314   1.320       .  A
N313        C317   1.342       .  A
N313       Cu321   2.065       .  S
N314        C315   1.345       .  A
N314       Cu320   2.074       .  S
C315        C316   1.390       .  A
C315        H318   1.081       .  S
C316        C317   1.388       .  A
C316        C370   1.487       .  S
C317        H319   1.081       .  S
Cu320       N323   2.074       .  S
Cu321       N331   2.065       .  S
Cu322       N324   2.077       .  S
Cu322       N330   2.077       .  S
N323        N324   1.323       .  A
N323        C327   1.345       .  A
N324        C325   1.345       .  A
C325        C326   1.383       .  A
C325        H328   1.082       .  S
C326        C327   1.382       .  A
C327        H329   1.082       .  S
N330        N331   1.320       .  A
N330        C334   1.346       .  A
N331        C332   1.341       .  A
C332        C333   1.387       .  A
C332        H335   1.081       .  S
C333        C334   1.390       .  A
C333        C348   1.487       .  S
C334        H336   1.081       .  S
C337        C338   1.408       .  A
C337        C342   1.408       .  A
C338        C339   1.397       .  A
C338        H351   1.083       .  S
C339        C340   1.399       .  A
C339        H352   1.084       .  S
C340        C341   1.400       .  A
C340        C343   1.440       .  S
C341        C342   1.400       .  A
C341        H353   1.083       .  S
C342        H354   1.083       .  S
C343        C344   1.206       .  T
C344        C345   1.439       .  S
C345        C346   1.400       .  A
C345        C350   1.397       .  A
C346        C347   1.401       .  A
C346        H355   1.083       .  S
C347        C348   1.409       .  A
C347        H356   1.081       .  S
C348        C349   1.409       .  A
C349        C350   1.396       .  A
C349        H357   1.081       .  S
C350        H358   1.084       .  S
C359        C360   1.406       .  A
C359        C364   1.408       .  A
C360        C361   1.397       .  A
C360        H373   1.083       .  S
C361        C362   1.399       .  A
C361        H374   1.083       .  S
C362        C363   1.400       .  A
C362        C365   1.439       .  S
C363        C364   1.399       .  A
C363        H375   1.084       .  S
C364        H376   1.083       .  S
C365        C366   1.206       .  T
C366        C367   1.439       .  S
C367        C368   1.399       .  A
C367        C372   1.398       .  A
C368        C369   1.399       .  A
C368        H377   1.083       .  S
C369        C370   1.409       .  A
C369        H378   1.081       .  S
C370        C371   1.409       .  A
C371        C372   1.397       .  A
C371        H379   1.081       .  S
C372        H380   1.084       .  S
C381        C382   1.407   1_556  A
C381        C386   1.408   1_556  A
C382        C383   1.398       .  A
C382        H395   1.083   1_554  S
C383        C384   1.399       .  A
C383        H396   1.084       .  S
C384        C385   1.399       .  A
C384        C387   1.439       .  S
C385        C386   1.398       .  A
C385        H397   1.083       .  S
C386        H398   1.083   1_554  S
C387        C388   1.206       .  T
C388        C389   1.439       .  S
C389        C390   1.400       .  A
C389        C394   1.399       .  A
C390        C391   1.399       .  A
C390        H399   1.083       .  S
C391        C392   1.407       .  A
C391        H400   1.083       .  S
C392        C393   1.407       .  A
C393        C394   1.398       .  A
C393        H401   1.083       .  S
C394        H402   1.084       .  S
C403        C404   1.408       .  A
C403        C408   1.408       .  A
C404        C405   1.396       .  A
C404        H417   1.083       .  S
C405        C406   1.398       .  A
C405        H418   1.084       .  S
C406        C407   1.399       .  A
C406        C409   1.437       .  S
C407        C408   1.399       .  A
C407        H419   1.083       .  S
C408        H420   1.083       .  S
C409        C410   1.204       .  T
C410        C411   1.437       .  S
C411        C412   1.399       .  A
C411        C416   1.397       .  A
C412        C413   1.399       .  A
C412        H421   1.083       .  S
C413        C414   1.407       .  A
C413        H422   1.082       .  S
C414        C415   1.408       .  A
C415        C416   1.395       .  A
C415        H423   1.081       .  S
C416        H424   1.084       .  S
C425        C426   1.407       .  A
C425        C430   1.407       .  A
C426        C427   1.398       .  A
C426        H439   1.083       .  S
C427        C428   1.399       .  A
C427        H440   1.083       .  S
C428        C429   1.400       .  A
C428        C431   1.439       .  S
C429        C430   1.398       .  A
C429        H441   1.084       .  S
C430        H442   1.083       .  S
C431        C432   1.205       .  T
C432        C433   1.439       .  S
C433        C434   1.399       .  A
C433        C438   1.400       .  A
C434        C435   1.397       .  A
C434        H443   1.084       .  S
C435        C436   1.407       .  A
C435        H444   1.083       .  S
C436        C437   1.407       .  A
C437        C438   1.399       .  A
C437        H445   1.083       .  S
C438        H446   1.083       .  S
C447        C448   1.406       .  A
C447        C452   1.407       .  A
C448        C449   1.396       .  A
C448        H461   1.083       .  S
C449        C450   1.399       .  A
C449        H462   1.084       .  S
C450        C451   1.399       .  A
C450        C453   1.435       .  S
C451        C452   1.397       .  A
C451        H463   1.084       .  S
C452        H464   1.083       .  S
C453        C454   1.203       .  T
C454        C455   1.435       .  S
C455        C456   1.399       .  A
C455        C460   1.397       .  A
C456        C457   1.399       .  A
C456        H465   1.083       .  S
C457        C458   1.407       .  A
C457        H466   1.082       .  S
C458        C459   1.408       .  A
C459        C460   1.395       .  A
C459        H467   1.081       .  S
C460        H468   1.084       .  S
C469        C470   1.408       .  A
C469        C474   1.406       .  A
C470        C471   1.397       .  A
C470        H483   1.083       .  S
C471        C472   1.399       .  A
C471        H484   1.084       .  S
C472        C473   1.399       .  A
C472        C475   1.437       .  S
C473        C474   1.398       .  A
C473        H485   1.084       .  S
C474        H486   1.083       .  S
C475        C476   1.204       .  T
C476        C477   1.437       .  S
C477        C478   1.399       .  A
C477        C482   1.399       .  A
C478        C479   1.396       .  A
C478        H487   1.084       .  S
C479        C480   1.406       .  A
C479        H488   1.083       .  S
C480        C481   1.408       .  A
C481        C482   1.398       .  A
C481        H489   1.083       .  S
C482        H490   1.084       .  S
C491        C492   1.408       .  A
C491        C496   1.409       .  A
C492        C493   1.396       .  A
C492        H505   1.081       .  S
C493        C494   1.398       .  A
C493        H506   1.084       .  S
C494        C495   1.400       .  A
C494        C497   1.439       .  S
C495        C496   1.401       .  A
C495        H507   1.083       .  S
C496        H508   1.082       .  S
C497        C498   1.206       .  T
C498        C499   1.439       .  S
C499        C500   1.400       .  A
C499        C504   1.398       .  A
C500        C501   1.400       .  A
C500        H509   1.083       .  S
C501        C502   1.408       .  A
C501        H510   1.083       .  S
C502        C503   1.408       .  A
C503        C504   1.396       .  A
C503        H511   1.083       .  S
C504        H512   1.084       .  S
C513        C514   1.407       .  A
C513        C518   1.407       .  A
C514        C515   1.399       .  A
C514        H527   1.083       .  S
C515        C516   1.400       .  A
C515        H528   1.083       .  S
C516        C517   1.399       .  A
C516        C519   1.439       .  S
C517        C518   1.398       .  A
C517        H529   1.084       .  S
C518        H530   1.083       .  S
C519        C520   1.206       .  T
C520        C521   1.439       .  S
C521        C522   1.399       .  A
C521        C526   1.399   1_554  A
C522        C523   1.398       .  A
C522        H531   1.084       .  S
C523        C524   1.407   1_554  A
C523        H532   1.083       .  S
C524        C525   1.408       .  A
C525        C526   1.398       .  A
C525        H533   1.083       .  S
C526        H534   1.084       .  S
C535        C536   1.407       .  A
C535        C540   1.408       .  A
C536        C537   1.397       .  A
C536        H549   1.083       .  S
C537        C538   1.399       .  A
C537        H550   1.083       .  S
C538        C539   1.399       .  A
C538        C541   1.439       .  S
C539        C540   1.399       .  A
C539        H551   1.084       .  S
C540        H552   1.083       .  S
C541        C542   1.206       .  T
C542        C543   1.439       .  S
C543        C544   1.399       .  A
C543        C548   1.397       .  A
C544        C545   1.400       .  A
C544        H553   1.083       .  S
C545        C546   1.409       .  A
C545        H554   1.081       .  S
C546        C547   1.409       .  A
C547        C548   1.396       .  A
C547        H555   1.080       .  S
C548        H556   1.084       .  S
C557        C558   1.408       .  A
C557        C562   1.407       .  A
C558        C559   1.399       .  A
C558        H571   1.083       .  S
C559        C560   1.400       .  A
C559        H572   1.083       .  S
C560        C561   1.400       .  A
C560        C563   1.441       .  S
C561        C562   1.399       .  A
C561        H573   1.084       .  S
C562        H574   1.083       .  S
C563        C564   1.207       .  T
C564        C565   1.441       .  S
C565        C566   1.399       .  A
C565        C570   1.400   1_554  A
C566        C567   1.399       .  A
C566        H575   1.083       .  S
C567        C568   1.408       .  A
C567        H576   1.083       .  S
C568        C569   1.408   1_554  A
C569        C570   1.399       .  A
C569        H577   1.083       .  S
C570        H578   1.084       .  S
C579        C580   1.407       .  A
C579        C584   1.407       .  A
C580        C581   1.399       .  A
C580        H593   1.083       .  S
C581        C582   1.400       .  A
C581        H594   1.083       .  S
C582        C583   1.400       .  A
C582        C585   1.440       .  S
C583        C584   1.398       .  A
C583        H595   1.084       .  S
C584        H596   1.083       .  S
C585        C586   1.206   1_545  T
C586        C587   1.439       .  S
C587        C588   1.399       .  A
C587        C592   1.400       .  A
C588        C589   1.397       .  A
C588        H597   1.084       .  S
C589        C590   1.407       .  A
C589        H598   1.083       .  S
C590        C591   1.409       .  A
C591        C592   1.399       .  A
C591        H599   1.083       .  S
C592        H600   1.084       .  S
C601        C602   1.409       .  A
C601        C606   1.408       .  A
C602        C603   1.400       .  A
C602        H615   1.081       .  S
C603        C604   1.399       .  A
C603        H616   1.083       .  S
C604        C605   1.398       .  A
C604        C607   1.440       .  S
C605        C606   1.396       .  A
C605        H617   1.084       .  S
C606        H618   1.081       .  S
C607        C608   1.206       .  T
C608        C609   1.440       .  S
C609        C610   1.400       .  A
C609        C614   1.400       .  A
C610        C611   1.398       .  A
C610        H619   1.083       .  S
C611        C612   1.406       .  A
C611        H620   1.083       .  S
C612        C613   1.407       .  A
C613        C614   1.399       .  A
C613        H621   1.083       .  S
C614        H622   1.083       .  S
C623        C624   1.407       .  A
C623        C628   1.407       .  A
C624        C625   1.400       .  A
C624        H637   1.083       .  S
C625        C626   1.400       .  A
C625        H638   1.083       .  S
C626        C627   1.399       .  A
C626        C629   1.441       .  S
C627        C628   1.398       .  A
C627        H639   1.084       .  S
C628        H640   1.083       .  S
C629        C630   1.207       .  T
C630        C631   1.441       .  S
C631        C632   1.400       .  A
C631        C636   1.399       .  A
C632        C633   1.400       .  A
C632        H641   1.083       .  S
C633        C634   1.407       .  A
C633        H642   1.083       .  S
C634        C635   1.408       .  A
C635        C636   1.398       .  A
C635        H643   1.083       .  S
C636        H644   1.084       .  S
C645        C646   1.408       .  A
C645        C650   1.407       .  A
C646        C647   1.399       .  A
C646        H659   1.083       .  S
C647        C648   1.400   1_545  A
C647        H660   1.083       .  S
C648        C649   1.398   1_565  A
C648        C651   1.437       .  S
C649        C650   1.396       .  A
C649        H661   1.084   1_545  S
C650        H662   1.083       .  S
C651        C652   1.204       .  T
C652        C653   1.437       .  S
C653        C654   1.399       .  A
C653        C658   1.399       .  A
C654        C655   1.397       .  A
C654        H663   1.084       .  S
C655        C656   1.407       .  A
C655        H664   1.083       .  S
C656        C657   1.407       .  A
C657        C658   1.397       .  A
C657        H665   1.083       .  S
C658        H666   1.083       .  S
C667        C668   1.409       .  A
C667        C672   1.409       .  A
C668        C669   1.397       .  A
C668        H681   1.081       .  S
C669        C670   1.397       .  A
C669        H682   1.084       .  S
C670        C671   1.399       .  A
C670        C673   1.439       .  S
C671        C672   1.400       .  A
C671        H683   1.083       .  S
C672        H684   1.081       .  S
C673        C674   1.205       .  T
C674        C675   1.439       .  S
C675        C676   1.399       .  A
C675        C680   1.400       .  A
C676        C677   1.398       .  A
C676        H685   1.084       .  S
C677        C678   1.408       .  A
C677        H686   1.083       .  S
C678        C679   1.407       .  A
C679        C680   1.398       .  A
C679        H687   1.083       .  S
C680        H688   1.083       .  S
C689        C690   1.406       .  A
C689        C694   1.406       .  A
C690        C691   1.396       .  A
C690        H703   1.083       .  S
C691        C692   1.399       .  A
C691        H704   1.083       .  S
C692        C693   1.400       .  A
C692        C695   1.436       .  S
C693        C694   1.398       .  A
C693        H705   1.084       .  S
C694        H706   1.083       .  S
C695        C696   1.204       .  T
C696        C697   1.437       .  S
C697        C698   1.399       .  A
C697        C702   1.398       .  A
C698        C699   1.398       .  A
C698        H707   1.084       .  S
C699        C700   1.407       .  A
C699        H708   1.082       .  S
C700        C701   1.407       .  A
C701        C702   1.396       .  A
C701        H709   1.082       .  S
C702        H710   1.084       .  S
C711        C712   1.407       .  A
C711        C716   1.408       .  A
C712        C713   1.397       .  A
C712        H725   1.083       .  S
C713        C714   1.399       .  A
C713        H726   1.083       .  S
C714        C715   1.399       .  A
C714        C717   1.439       .  S
C715        C716   1.399       .  A
C715        H727   1.084       .  S
C716        H728   1.083       .  S
C717        C718   1.205       .  T
C718        C719   1.438       .  S
C719        C720   1.399       .  A
C719        C724   1.398       .  A
C720        C721   1.400       .  A
C720        H729   1.083       .  S
C721        C722   1.409       .  A
C721        H730   1.081       .  S
C722        C723   1.408       .  A
C723        C724   1.396       .  A
C723        H731   1.081       .  S
C724        H732   1.084       .  S
C733        C734   1.408       .  A
C733        C738   1.408       .  A
C734        C735   1.398       .  A
C734        H747   1.083       .  S
C735        C736   1.399       .  A
C735        H748   1.084       .  S
C736        C737   1.400       .  A
C736        C739   1.442       .  S
C737        C738   1.400       .  A
C737        H749   1.083       .  S
C738        H750   1.083       .  S
C739        C740   1.207       .  T
C740        C741   1.442       .  S
C741        C742   1.400       .  A
C741        C746   1.400       .  A
C742        C743   1.400       .  A
C742        H751   1.083       .  S
C743        C744   1.408       .  A
C743        H752   1.083       .  S
C744        C745   1.407       .  A
C745        C746   1.398       .  A
C745        H753   1.083       .  S
C746        H754   1.083       .  S
C755        C756   1.408       .  A
C755        C760   1.408       .  A
C756        C757   1.398       .  A
C756        H769   1.083       .  S
C757        C758   1.399       .  A
C757        H770   1.083       .  S
C758        C759   1.400       .  A
C758        C761   1.441       .  S
C759        C760   1.400       .  A
C759        H771   1.083       .  S
C760        H772   1.083       .  S
C761        C762   1.207       .  T
C762        C763   1.441       .  S
C763        C764   1.399       .  A
C763        C768   1.398       .  A
C764        C765   1.400       .  A
C764        H773   1.083       .  S
C765        C766   1.410       .  A
C765        H774   1.081       .  S
C766        C767   1.408       .  A
C767        C768   1.398       .  A
C767        H775   1.081       .  S
C768        H776   1.084       .  S
C777        C778   1.407       .  A
C777        C782   1.407       .  A
C778        C779   1.396       .  A
C778        H791   1.083       .  S
C779        C780   1.399       .  A
C779        H792   1.084       .  S
C780        C781   1.400       .  A
C780        C783   1.438       .  S
C781        C782   1.399       .  A
C781        H793   1.083       .  S
C782        H794   1.083       .  S
C783        C784   1.205       .  T
C784        C785   1.438       .  S
C785        C786   1.399       .  A
C785        C790   1.400       .  A
C786        C787   1.398       .  A
C786        H795   1.083       .  S
C787        C788   1.406       .  A
C787        H796   1.083       .  S
C788        C789   1.406       .  A
C789        C790   1.397       .  A
C789        H797   1.083       .  S
C790        H798   1.084       .  S
C799        C800   1.409       .  A
C799        C804   1.409       .  A
C800        C801   1.399       .  A
C800        H813   1.082       .  S
C801        C802   1.399       .  A
C801        H814   1.083       .  S
C802        C803   1.399       .  A
C802        C805   1.439       .  S
C803        C804   1.397       .  A
C803        H815   1.084       .  S
C804        H816   1.082       .  S
C805        C806   1.206       .  T
C806        C807   1.439       .  S
C807        C808   1.398       .  A
C807        C812   1.399       .  A
C808        C809   1.397       .  A
C808        H817   1.084       .  S
C809        C810   1.408       .  A
C809        H818   1.081       .  S
C810        C811   1.409       .  A
C811        C812   1.399       .  A
C811        H819   1.081       .  S
C812        H820   1.084       .  S
C821        C822   1.407       .  A
C821        C826   1.408       .  A
C822        C823   1.398       .  A
C822        H835   1.083       .  S
C823        C824   1.399       .  A
C823        H836   1.084       .  S
C824        C825   1.400       .  A
C824        C827   1.441       .  S
C825        C826   1.400       .  A
C825        H837   1.083       .  S
C826        H838   1.083       .  S
C827        C828   1.206       .  T
C828        C829   1.440       .  S
C829        C830   1.399       .  A
C829        C834   1.401       .  A
C830        C831   1.398       .  A
C830        H839   1.084       .  S
C831        C832   1.408       .  A
C831        H840   1.083       .  S
C832        C833   1.407       .  A
C833        C834   1.400       .  A
C833        H841   1.083       .  S
C834        H842   1.083       .  S
C843        C844   1.408       .  A
C843        C848   1.408       .  A
C844        C845   1.398       .  A
C844        H857   1.083       .  S
C845        C846   1.400       .  A
C845        H858   1.084       .  S
C846        C847   1.400       .  A
C846        C849   1.441       .  S
C847        C848   1.399       .  A
C847        H859   1.083       .  S
C848        H860   1.083       .  S
C849        C850   1.207       .  T
C850        C851   1.441       .  S
C851        C852   1.400       .  A
C851        C856   1.399       .  A
C852        C853   1.400       .  A
C852        H861   1.083       .  S
C853        C854   1.408       .  A
C853        H862   1.082       .  S
C854        C855   1.407       .  A
C855        C856   1.397       .  A
C855        H863   1.082       .  S
C856        H864   1.084       .  S
C865        C866   1.407       .  A
C865        C870   1.407       .  A
C866        C867   1.398       .  A
C866        H879   1.083       .  S
C867        C868   1.400       .  A
C867        H880   1.084       .  S
C868        C869   1.400       .  A
C868        C871   1.441       .  S
C869        C870   1.399       .  A
C869        H881   1.083       .  S
C870        H882   1.083       .  S
C871        C872   1.207       .  T
C872        C873   1.441       .  S
C873        C874   1.400       .  A
C873        C878   1.401       .  A
C874        C875   1.398       .  A
C874        H883   1.084       .  S
C875        C876   1.407       .  A
C875        H884   1.083       .  S
C876        C877   1.406       .  A
C877        C878   1.399       .  A
C877        H885   1.083       .  S
C878        H886   1.083       .  S
C887        C888   1.409       .  A
C887        C892   1.408       .  A
C888        C889   1.400       .  A
C888        H901   1.083       .  S
C889        C890   1.400       .  A
C889        H902   1.084       .  S
C890        C891   1.399       .  A
C890        C893   1.441       .  S
C891        C892   1.398       .  A
C891        H903   1.083       .  S
C892        H904   1.083       .  S
C893        C894   1.207       .  T
C894        C895   1.441       .  S
C895        C896   1.399       .  A
C895        C900   1.400       .  A
C896        C897   1.398       .  A
C896        H905   1.084       .  S
C897        C898   1.408       .  A
C897        H906   1.082       .  S
C898        C899   1.409       .  A
C899        C900   1.400       .  A
C899        H907   1.081       .  S
C900        H908   1.083       .  S
C909        C910   1.408       .  A
C909        C914   1.409       .  A
C910        C911   1.400       .  A
C910        H923   1.083   1_554  S
C911        C912   1.400       .  A
C911        H924   1.083       .  S
C912        C913   1.399       .  A
C912        C915   1.442       .  S
C913        C914   1.398       .  A
C913        H925   1.084       .  S
C914        H926   1.083       .  S
C915        C916   1.207       .  T
C916        C917   1.442       .  S
C917        C918   1.400       .  A
C917        C922   1.399       .  A
C918        C919   1.399       .  A
C918        H927   1.083       .  S
C919        C920   1.409       .  A
C919        H928   1.083       .  S
C920        C921   1.408       .  A
C921        C922   1.399       .  A
C921        H929   1.083       .  S
C922        H930   1.084       .  S
C931        C932   1.407       .  A
C931        C936   1.407       .  A
C932        C933   1.399       .  A
C932        H945   1.083       .  S
C933        C934   1.400       .  A
C933        H946   1.083       .  S
C934        C935   1.399       .  A
C934        C937   1.439       .  S
C935        C936   1.397       .  A
C935        H947   1.084       .  S
C936        H948   1.083       .  S
C937        C938   1.206       .  T
C938        C939   1.439   1_565  S
C939        C940   1.399       .  A
C939        C944   1.399       .  A
C940        C941   1.397       .  A
C940        H949   1.084       .  S
C941        C942   1.408       .  A
C941        H950   1.083       .  S
C942        C943   1.408       .  A
C943        C944   1.399       .  A
C943        H951   1.083       .  S
C944        H952   1.083       .  S
C953        C954   1.409       .  A
C953        C958   1.409       .  A
C954        C955   1.399       .  A
C954        H967   1.081       .  S
C955        C956   1.399       .  A
C955        H968   1.084       .  S
C956        C957   1.398       .  A
C956        C959   1.440       .  S
C957        C958   1.398       .  A
C957        H969   1.084       .  S
C958        H970   1.081       .  S
C959        C960   1.206       .  T
C960        C961   1.440       .  S
C961        C962   1.400       .  A
C961        C966   1.399       .  A
C962        C963   1.398       .  A
C962        H971   1.083       .  S
C963        C964   1.407       .  A
C963        H972   1.083       .  S
C964        C965   1.408       .  A
C965        C966   1.399       .  A
C965        H973   1.083       .  S
C966        H974   1.084       .  S
C975        C976   1.407       .  A
C975        C980   1.408       .  A
C976        C977   1.397       .  A
C976        H989   1.083       .  S
C977        C978   1.399       .  A
C977        H990   1.084       .  S
C978        C979   1.398       .  A
C978        C981   1.436       .  S
C979        C980   1.397       .  A
C979        H991   1.083       .  S
C980        H992   1.083       .  S
C981        C982   1.204       .  T
C982        C983   1.436       .  S
C983        C984   1.399       .  A
C983        C988   1.398       .  A
C984        C985   1.397       .  A
C984        H993   1.084       .  S
C985        C986   1.408       .  A
C985        H994   1.083       .  S
C986        C987   1.407       .  A
C987        C988   1.397       .  A
C987        H995   1.083       .  S
C988        H996   1.083       .  S
C997        C998   1.407       .  A
C997       C1002   1.407       .  A
C998        C999   1.399       .  A
C998       H1011   1.083       .  S
C999       C1000   1.400   1_545  A
C999       H1012   1.083       .  S
C1000      C1001   1.399   1_565  A
C1000      C1003   1.439       .  S
C1001      C1002   1.397       .  A
C1001      H1013   1.084   1_545  S
C1002      H1014   1.083       .  S
C1003      C1004   1.205       .  T
C1004      C1005   1.439       .  S
C1005      C1006   1.399       .  A
C1005      C1010   1.399       .  A
C1006      C1007   1.398       .  A
C1006      H1015   1.083       .  S
C1007      C1008   1.407       .  A
C1007      H1016   1.083       .  S
C1008      C1009   1.407       .  A
C1009      C1010   1.398       .  A
C1009      H1017   1.083       .  S
C1010      H1018   1.083       .  S
C1019      C1020   1.406       .  A
C1019      C1024   1.407       .  A
C1020      C1021   1.396       .  A
C1020      H1033   1.083       .  S
C1021      C1022   1.399       .  A
C1021      H1034   1.084       .  S
C1022      C1023   1.400       .  A
C1022      C1025   1.438       .  S
C1023      C1024   1.400       .  A
C1023      H1035   1.083       .  S
C1024      H1036   1.083       .  S
C1025      C1026   1.205       .  T
C1026      C1027   1.439       .  S
C1027      C1028   1.399       .  A
C1027      C1032   1.398       .  A
C1028      C1029   1.400       .  A
C1028      H1037   1.083       .  S
C1029      C1030   1.409       .  A
C1029      H1038   1.081       .  S
C1030      C1031   1.407       .  A
C1031      C1032   1.396       .  A
C1031      H1039   1.081       .  S
C1032      H1040   1.084       .  S
