geometry optimzed in LAMMPS
_audit_creation_date              2020-11-30 
_audit_creation_method            'lammps2cif' 
_symmetry_space_group_name_H-M    'P1' 
_symmetry_Int_Tables_number       1 
_symmetry_cell_setting            triclinic 
loop_ 
_symmetry_equiv_pos_as_xyz 
  x,y,z 
_cell_length_a                    26.68329061 
_cell_length_b                    26.672465686274766 
_cell_length_c                    26.66671417657347 
_cell_angle_alpha                 89.67230615828362 
_cell_angle_beta                  90.09718985196649 
_cell_angle_gamma                 93.50700302991102 
loop_ 
_atom_site_label 
_atom_site_type_symbol 
_atom_site_fract_x 
_atom_site_fract_y 
_atom_site_fract_z 
_atom_site_charge 
O1          O  0.53093641  0.05802287  0.89682934    -0.86000
O2          O  0.54279842  0.05361762  0.60783721    -0.86100
O3          O  0.63665631  0.04756390  0.75814631    -0.87800
O4          O  0.52719391  0.15763461  0.74470861    -0.86600
O5          O  0.44138485  0.15543421  0.73729506    -0.86200
O6          O  0.63308508  0.96157796  0.76331520    -0.87500
O7          O  0.57445160  0.10518015  0.67067339    -0.86000
O8          O  0.58208163  0.09190446  0.83429951    -0.85600
Zr9        Zr  0.55001311  0.07125453  0.75199923     2.84300
O10         O  0.48421256  0.06442556  0.69554222    -1.07600
O11         O  0.54024790  0.00540010  0.80858571    -1.08300
C12         C  0.57122283  0.08214745  0.88050387     1.07100
C13         C  0.56713978  0.09362037  0.62427104     1.07100
C14         C  0.65715262  0.00509686  0.76161031     1.10100
C15         C  0.48529381  0.17856402  0.73898535     1.07800
H16         H  0.58370332  0.99704887  0.68719933     0.33400
O17         O  0.55253031  0.99739343  0.70542709    -1.28500
H18         H  0.47533914  0.10482509  0.81626118     0.33100
O19         O  0.47518479  0.07376181  0.79792909    -1.30200
O20         O  0.43645798  0.91983096  0.60740988    -0.86000
O21         O  0.39352493  0.95513361  0.89280198    -0.87500
O22         O  0.57314851  0.89218660  0.69135791    -0.86000
O23         O  0.40313020  0.10617383  0.65581536    -0.86100
O24         O  0.37283378  0.10205746  0.81188752    -0.85800
O25         O  0.58030938  0.92460426  0.84890871    -0.85600
O26         O  0.42747964  0.84091649  0.76686050    -0.86000
O27         O  0.32014470  0.94936169  0.73040122    -0.85400
O28         O  0.51333277  0.84540546  0.77679914    -0.86500
O29         O  0.32364897  0.03578114  0.72655364    -0.85700
O30         O  0.54186010  0.93063293  0.62144151    -0.86100
O31         O  0.52576548  0.95761929  0.90453359    -0.85800
O32         O  0.40821935  0.06641819  0.88121452    -0.85400
O33         O  0.44168061  0.05672868  0.59932073    -0.85800
O34         O  0.39005027  0.88078873  0.67054239    -0.86100
O35         O  0.35605128  0.90932955  0.82871820    -0.87500
Zr36       Zr  0.48444251  0.99166611  0.64825291     2.83100
Zr37       Zr  0.46597981  0.00506317  0.85442118     2.83500
Zr38       Zr  0.54478110  0.93194670  0.76515783     2.84100
Zr39       Zr  0.40985902  0.06793651  0.73847434     2.83400
Zr40       Zr  0.40320711  0.92551580  0.75032494     2.84200
O41         O  0.40140574  0.00042328  0.79477403    -1.08000
O42         O  0.47883571  0.92659252  0.70763677    -1.07500
C43         C  0.40590928  0.88390904  0.62465093     1.07100
C44         C  0.35845092  0.92407487  0.87495156     1.09700
C45         C  0.56753150  0.89775063  0.64394752     1.07300
C46         C  0.41817672  0.09639406  0.61116140     1.07600
C47         C  0.37787561  0.09555990  0.85933617     1.07200
C48         C  0.56651077  0.93569759  0.89362994     1.06800
C49         C  0.46979809  0.82164924  0.77535806     1.07200
C50         C  0.30062936  0.99183685  0.72471576     1.06700
H51         H  0.46570408  0.90260587  0.83386976     0.33400
O52         O  0.46863681  0.92993561  0.81004057    -1.29100
H53         H  0.38191328  0.99079740  0.66746260     0.33400
O54         O  0.40872686  0.99291168  0.69199126    -1.30500
C55         C  0.67653168  0.26383626  0.52818527     0.87000
C56         C  0.65431347  0.22366862  0.56412269    -0.53200
C57         C  0.60325254  0.21943387  0.56390194     0.09900
C58         C  0.57913258  0.25633459  0.52787773     0.20900
C59         C  0.65346642  0.25057270  0.47671404    -0.54000
C60         C  0.60257754  0.24184929  0.47678948     0.10000
C61         C  0.65359555  0.31252771  0.54379150    -0.53500
C62         C  0.60239158  0.31007726  0.54359297     0.10600
H63         H  0.67698190  0.19951233  0.58657529     0.15100
H64         H  0.53745752  0.25290291  0.52805536     0.00900
H65         H  0.67651387  0.24261980  0.44458215     0.15400
H66         H  0.67599101  0.34760259  0.54864248     0.15200
O67         O  0.55100804  0.09549356  0.39295574    -0.86000
O68         O  0.57521499  0.08035079  0.10588530    -0.86100
O69         O  0.65992692  0.07704656  0.25019235    -0.87800
O70         O  0.54557907  0.18885058  0.24629310    -0.86600
O71         O  0.45956266  0.18174836  0.25032768    -0.86200
O72         O  0.65434408  0.99063181  0.25106207    -0.87500
O73         O  0.61468839  0.12695141  0.16842044    -0.86000
O74         O  0.59591751  0.13983085  0.33185302    -0.85600
Zr75       Zr  0.57471051  0.10301106  0.24913637     2.84300
O76         O  0.50503595  0.10312484  0.19469423    -1.07600
O77         O  0.57470643  0.02941806  0.30016818    -1.08300
C78         C  0.58110975  0.13273434  0.37783090     1.07100
C79         C  0.61077743  0.11178442  0.12234814     1.07100
C80         C  0.67902529  0.03386473  0.25017851     1.10100
C81         C  0.50176775  0.20710737  0.24929792     1.07800
H82         H  0.60123906  0.03025273  0.18056376     0.33400
O83         O  0.57081075  0.03037355  0.20009558    -1.28500
H84         H  0.50168151  0.12662684  0.31952759     0.33100
O85         O  0.50340054  0.09700444  0.29920971    -1.30200
O86         O  0.43855528  0.97475372  0.10369526    -0.86000
O87         O  0.44638658  0.96083308  0.39029380    -0.87500
O88         O  0.59886443  0.93446583  0.16769420    -0.86000
O89         O  0.39610444  0.11639155  0.16664126    -0.86100
O90         O  0.40244278  0.11588482  0.32803742    -0.85800
O91         O  0.58754111  0.91519298  0.32845110    -0.85600
O92         O  0.45002109  0.86907412  0.24135163    -0.86000
O93         O  0.33863851  0.98565216  0.24702858    -0.85400
O94         O  0.53611592  0.86980082  0.24291441    -0.86500
O95         O  0.34708312  0.07154679  0.24172208    -0.85700
O96         O  0.55520755  0.97232886  0.10508142    -0.86100
O97         O  0.55489235  0.96229131  0.39081130    -0.85800
O98         O  0.44083993  0.07192161  0.39034228    -0.85400
O99         O  0.44077016  0.08079155  0.10394803    -0.85800
O100        O  0.39153707  0.93412346  0.16586694    -0.86100
O101        O  0.40234309  0.91807122  0.32777039    -0.87500
Zr102      Zr  0.50284459  0.03015963  0.14514221     2.83100
Zr103      Zr  0.50273403  0.02499914  0.35048248     2.83500
Zr104      Zr  0.56783926  0.95740998  0.24898232     2.84100
Zr105      Zr  0.43408267  0.09511869  0.24668376     2.83400
Zr106      Zr  0.42539016  0.95528467  0.24721913     2.84200
O107        O  0.42988921  0.02483094  0.29971149    -1.08000
O108        O  0.49744339  0.95718019  0.19608915    -1.07500
C109        C  0.40075329  0.94644643  0.11987485     1.07100
C110        C  0.41579296  0.92520415  0.37382269     1.09700
C111        C  0.58923835  0.94434082  0.12139693     1.07300
C112        C  0.40376131  0.10522987  0.12034880     1.07600
C113        C  0.41019369  0.10334813  0.37389844     1.07200
C114        C  0.57842895  0.92414006  0.37513930     1.06800
C115        C  0.49188069  0.84718503  0.24143019     1.07200
C116        C  0.32081424  0.02988936  0.24283773     1.06700
H117        H  0.49566864  0.92481298  0.31694282     0.33400
O118        O  0.49673036  0.95559325  0.29783549    -1.29100
H119        H  0.40199027  0.02565122  0.17661375     0.33400
O120        O  0.43207082  0.02579780  0.19651900    -1.30500
C121        C  0.23509923  0.82592439  0.04072457     0.87000
C122        C  0.25420339  0.84523174  0.98895838    -0.53200
C123        C  0.25938181  0.89652799  0.98440583     0.09900
C124        C  0.23940732  0.92303945  0.03149967     0.20900
C125        C  0.27031708  0.85281264  0.07843278    -0.54000
C126        C  0.27325222  0.90365611  0.07285045     0.10000
C127        C  0.18417895  0.84811833  0.04844911    -0.53500
C128        C  0.18558497  0.89901260  0.04448522     0.10600
H129        H  0.26898450  0.81996564  0.96175214     0.15100
H130        H  0.24132488  0.96462431  0.02801053     0.00900
H131        H  0.29375693  0.83333711  0.10458379     0.15400
H132        H  0.14936492  0.82526568  0.05326478     0.15200
C133        C  0.72190888  0.82696823  0.99733464     0.87000
C134        C  0.69973901  0.83876970  0.04822890    -0.53200
C135        C  0.69621612  0.88883973  0.05587453     0.09900
C136        C  0.71553351  0.92328575  0.01255664     0.20900
C137        C  0.68866109  0.85241692  0.95907486    -0.54000
C138        C  0.68447503  0.90254534  0.96689400     0.10000
C139        C  0.77186991  0.85724998  0.99587357    -0.53500
C140        C  0.76995307  0.90788746  0.00499467     0.10600
H141        H  0.68495603  0.81015294  0.07433666     0.15100
H142        H  0.71220568  0.96399914  0.01941973     0.00900
H143        H  0.66878144  0.83219038  0.92909111     0.15400
H144        H  0.80657812  0.83884021  0.98986222     0.15200
C145        C  0.67671747  0.77684545  0.50515937     0.87000
C146        C  0.66049155  0.79868675  0.45453081    -0.53200
C147        C  0.60981195  0.80339759  0.45003056     0.09900
C148        C  0.57948072  0.78285631  0.49649020     0.20900
C149        C  0.65461658  0.81071103  0.54365813    -0.54000
C150        C  0.60380644  0.81406631  0.53909535     0.10000
C151        C  0.64681120  0.72692743  0.51146052    -0.53500
C152        C  0.59567891  0.72881399  0.50789574     0.10600
H153        H  0.68722949  0.81377454  0.42683808     0.15100
H154        H  0.53829032  0.78582991  0.49296236     0.00900
H155        H  0.67793773  0.83223745  0.57021545     0.15400
H156        H  0.66516646  0.69221726  0.51826825     0.15200
C157        C  0.25417627  0.19484171  0.00884113     0.87000
C158        C  0.27363722  0.17068274  0.05652144    -0.53200
C159        C  0.27851128  0.12026209  0.05327799     0.09900
C160        C  0.25849898  0.09745012  0.00317994     0.20900
C161        C  0.28882587  0.17829866  0.96732051    -0.54000
C162        C  0.29102904  0.12709834  0.96455290     0.10000
C163        C  0.20407166  0.16732210  0.99813180    -0.53500
C164        C  0.20512867  0.11607469  0.99448884     0.10600
H165        H  0.28953993  0.19274480  0.08749809     0.15100
H166        H  0.26037831  0.05602113  0.00121692     0.00900
H167        H  0.31127997  0.20483243  0.94441961     0.15400
H168        H  0.16988661  0.18727629  0.99462948     0.15200
C169        C  0.74107262  0.19780444  0.95583053     0.87000
C170        C  0.70467165  0.17032391  0.91960335    -0.53200
C171        C  0.69999361  0.11980310  0.92760511     0.09900
C172        C  0.73361068  0.10123945  0.96965694     0.20900
C173        C  0.72198754  0.18167372  0.00851613    -0.54000
C174        C  0.71467601  0.13083622  0.01550090     0.10000
C175        C  0.79097717  0.17366547  0.94871255    -0.53500
C176        C  0.78807164  0.12299942  0.95495397     0.10600
H177        H  0.68173874  0.18939422  0.89267018     0.15100
H178        H  0.73036161  0.05984604  0.97515403     0.00900
H179        H  0.70911226  0.20897135  0.03472565     0.15400
H180        H  0.82630273  0.19520347  0.94223720     0.15200
C181        C  0.30869517  0.24552070  0.49009766     0.87000
C182        C  0.33034812  0.21332782  0.44976931    -0.53200
C183        C  0.38091224  0.20933425  0.45407488     0.09900
C184        C  0.40599193  0.23857514  0.49716055     0.20900
C185        C  0.32541801  0.22216967  0.53974190    -0.54000
C186        C  0.37597226  0.21668734  0.54314885     0.10000
C187        C  0.33873118  0.29549183  0.48536058    -0.53500
C188        C  0.38999846  0.29288367  0.48795609     0.10600
H189        H  0.30761602  0.19438104  0.42091297     0.15100
H190        H  0.44715417  0.23508116  0.50006022     0.00900
H191        H  0.29894621  0.20663354  0.56748574     0.15400
H192        H  0.32054955  0.33052565  0.47997125     0.15200
C193        C  0.30623081  0.75621767  0.46952317     0.87000
C194        C  0.33018501  0.77077703  0.52031988    -0.53200
C195        C  0.38123126  0.77937109  0.51945131     0.09900
C196        C  0.40356874  0.76320234  0.46822745     0.20900
C197        C  0.32806573  0.79521921  0.43224771    -0.54000
C198        C  0.37909012  0.79907191  0.43161511     0.10000
C199        C  0.32852553  0.70699769  0.45482802    -0.53500
C200        C  0.37966666  0.70933580  0.45378396     0.10600
H201        H  0.30699857  0.77986789  0.55182808     0.15100
H202        H  0.44524828  0.76626889  0.46731540     0.00900
H203        H  0.30522687  0.81905963  0.40961877     0.15400
H204        H  0.30588484  0.67195489  0.45083043     0.15200
O205        O  0.83564677  0.74715579  0.52960416    -0.86000
O206        O  0.03754913  0.76921421  0.33364887    -0.86100
O207        O  0.89164412  0.82141903  0.38915610    -0.87800
O208        O  0.88722001  0.65969988  0.40702924    -0.86600
O209        O  0.93900989  0.60647025  0.44686332    -0.86200
O210        O  0.91966606  0.88943325  0.43689693    -0.87500
O211        O  0.95258689  0.74939467  0.33298838    -0.86000
O212        O  0.83734374  0.74095387  0.44379324    -0.85600
Zr213      Zr  0.92429025  0.74540353  0.42015371     2.84300
O214        O  0.00084013  0.70669415  0.41772760    -1.07600
O215        O  0.91884384  0.79938308  0.48923838    -1.08300
C216        C  0.81435539  0.74396843  0.48581081     1.07100
C217        C  0.99513200  0.76095751  0.31134900     1.07100
C218        C  0.89532031  0.86830191  0.40042388     1.10100
C219        C  0.89826464  0.61541363  0.42192742     1.07800
H220        H  0.98538735  0.82896252  0.39119589     0.33400
O221        O  0.98804292  0.80932668  0.42146805    -1.28500
H222        H  0.90061353  0.67506203  0.49576170     0.33100
O223        O  0.92911392  0.69883123  0.49317962    -1.30200
O224        O  0.14997528  0.78645043  0.44698183    -0.86000
O225        O  0.94960506  0.75776897  0.64843045    -0.87500
O226        O  0.03085400  0.91250795  0.42593915    -0.86000
O227        O  0.07424628  0.62917233  0.44408102    -0.86100
O228        O  0.95542818  0.61153279  0.55283149    -0.85800
O229        O  0.92414604  0.89332408  0.55090181    -0.85600
O230        O  0.07616239  0.85735282  0.60189807    -0.86000
O231        O  0.10325591  0.70225878  0.59322796    -0.85400
O232        O  0.03177426  0.91240619  0.55556593    -0.86500
O233        O  0.06959262  0.63290119  0.55126137    -0.85700
O234        O  0.07701887  0.85749428  0.38195424    -0.86100
O235        O  0.89168218  0.82555285  0.59664847    -0.85800
O236        O  0.90204798  0.66579183  0.58885343    -0.85400
O237        O  0.10767403  0.69723871  0.39923408    -0.85800
O238        O  0.15022662  0.79144000  0.53310641    -0.86100
O239        O  0.03562487  0.76866451  0.64845099    -0.87500
Zr240      Zr  0.06424281  0.77281589  0.41989822     2.83100
Zr241      Zr  0.92280633  0.75078575  0.56156116     2.83500
Zr242      Zr  0.98449899  0.86255236  0.49104774     2.84100
Zr243      Zr  0.00511242  0.65980318  0.49270756     2.83400
Zr244      Zr  0.06437466  0.77546025  0.56236948     2.84200
O245        O  0.99941375  0.71203372  0.56319803    -1.08000
O246        O  0.06227851  0.82615970  0.49016794    -1.07500
C247        C  0.17183121  0.79107467  0.48987265     1.07100
C248        C  0.99254748  0.76415489  0.67043926     1.09700
C249        C  0.06047910  0.90156674  0.38960901     1.07300
C250        C  0.10706448  0.65096637  0.41426741     1.07600
C251        C  0.91808696  0.62206477  0.58031136     1.07200
C252        C  0.89828867  0.87286691  0.58739564     1.06800
C253        C  0.05924756  0.90095498  0.59367166     1.07200
C254        C  0.09995196  0.65508864  0.58327490     1.06700
H255        H  0.98566657  0.83178329  0.59164273     0.33400
O256        O  0.98827858  0.81213329  0.56173864    -1.29100
H257        H  0.10055192  0.70993308  0.49375155     0.33400
O258        O  0.06840776  0.72444103  0.49246299    -1.30500
O259        O  0.83352232  0.22735601  0.46517209    -0.86000
O260        O  0.03117093  0.26967809  0.66596029    -0.86100
O261        O  0.89645713  0.16623089  0.61700251    -0.87800
O262        O  0.87584967  0.32469172  0.59691062    -0.86600
O263        O  0.91221670  0.39015409  0.55046806    -0.86200
O264        O  0.94396289  0.10709301  0.58095085    -0.87500
O265        O  0.94585349  0.25235281  0.66477695    -0.86000
O266        O  0.83301829  0.23631449  0.55088011    -0.85600
Zr267      Zr  0.91862334  0.24840608  0.57856642     2.84300
O268        O  0.98390597  0.31260544  0.57910538    -1.07600
O269        O  0.92027397  0.19196730  0.51100646    -1.08300
C270        C  0.81149204  0.23005826  0.50802114     1.07100
C271        C  0.98831894  0.25936806  0.68729069     1.07100
C272        C  0.91087106  0.12094290  0.61329480     1.10100
C273        C  0.87839985  0.37056034  0.58071217     1.07800
H274        H  0.99510912  0.19028738  0.61135023     0.33400
O275        O  0.99351934  0.20891422  0.58037186    -1.28500
H276        H  0.88445365  0.30884422  0.50163870     0.33100
O277        O  0.91614377  0.29349442  0.50384472    -1.30200
O278        O  0.14670672  0.27596678  0.55566501    -0.86000
O279        O  0.95126049  0.24383171  0.35094002    -0.87500
O280        O  0.05857363  0.12819556  0.57242755    -0.86000
O281        O  0.04766087  0.41012254  0.54743913    -0.86100
O282        O  0.91645658  0.38171645  0.44182880    -0.85800
O283        O  0.94608905  0.09968469  0.45303685    -0.85600
O284        O  0.09032382  0.18109389  0.40560529    -0.86000
O285        O  0.08559702  0.34410596  0.40936869    -0.85400
O286        O  0.05420985  0.11616825  0.45297322    -0.86500
O287        O  0.03244555  0.40132183  0.44070980    -0.85700
O288        O  0.09447214  0.19785928  0.61268621    -0.86100
O289        O  0.90255848  0.15388964  0.40467399    -0.85800
O290        O  0.88276955  0.31167015  0.40092223    -0.85400
O291        O  0.09672072  0.35725142  0.59132719    -0.85800
O292        O  0.14870215  0.26519211  0.47043958    -0.86100
O293        O  0.03728518  0.25426989  0.35145503    -0.87500
Zr294      Zr  0.05932774  0.27137831  0.57913030     2.83100
Zr295      Zr  0.92000391  0.23897476  0.43636383     2.83500
Zr296      Zr  0.99591325  0.15179834  0.51373500     2.84100
Zr297      Zr  0.98090334  0.35656355  0.50221829     2.83400
Zr298      Zr  0.06197817  0.25937285  0.43852106     2.84200
O299        O  0.98669199  0.30044502  0.43459627    -1.08000
O300        O  0.06363247  0.21340255  0.51297300    -1.07500
C301        C  0.16992264  0.27141532  0.51391904     1.07100
C302        C  0.99448440  0.24906508  0.32923305     1.09700
C303        C  0.08735048  0.15047803  0.60529276     1.07300
C304        C  0.08726597  0.40127078  0.57430764     1.07600
C305        C  0.88616289  0.35915601  0.40983019     1.07200
C306        C  0.91680527  0.10978623  0.41592898     1.06800
C307        C  0.08163724  0.13402536  0.41599599     1.07200
C308        C  0.07030538  0.38874626  0.41489948     1.06700
H309        H  0.99610447  0.17829746  0.41106832     0.33400
O310        O  0.99458881  0.19941762  0.44018438    -1.29100
H311        H  0.08477610  0.33828686  0.50179387     0.33400
O312        O  0.05582922  0.31506537  0.50435775    -1.30500
C313        C  0.75183309  0.50647964  0.66638810     0.87000
C314        C  0.75756751  0.45553003  0.64168208    -0.53200
C315        C  0.76766315  0.45819079  0.59149150     0.09900
C316        C  0.76099469  0.51142611  0.56944291     0.20900
C317        C  0.79690867  0.53947434  0.64948055    -0.54000
C318        C  0.80155462  0.54245128  0.59869459     0.10000
C319        C  0.70759956  0.52832732  0.64082142    -0.53500
C320        C  0.71023633  0.52985002  0.58951075     0.10600
H321        H  0.76159284  0.42165656  0.66373812     0.15100
H322        H  0.76505578  0.51393209  0.52810154     0.00900
H323        H  0.82228467  0.55932030  0.67552799     0.15400
H324        H  0.67432729  0.53719633  0.66172105     0.15200
C325        C  0.23706864  0.52001989  0.68749341     0.87000
C326        C  0.20128150  0.55891161  0.66880391    -0.53200
C327        C  0.19973792  0.56348880  0.61750902     0.09900
C328        C  0.23453865  0.52877503  0.59031923     0.20900
C329        C  0.21921140  0.47157848  0.66026273    -0.54000
C330        C  0.21434919  0.47594845  0.60979821     0.10000
C331        C  0.28833908  0.53662935  0.66478585    -0.53500
C332        C  0.28843690  0.54230302  0.61376456     0.10600
H333        H  0.17736445  0.57812812  0.69420305     0.15100
H334        H  0.23344727  0.53231649  0.54889399     0.00900
H335        H  0.20414717  0.43835990  0.68024207     0.15400
H336        H  0.32259014  0.53930672  0.68695709     0.15200
C337        C  0.81217878  0.99030259  0.26062135     0.87000
C338        C  0.82805802  0.93946421  0.27759890    -0.53200
C339        C  0.87862612  0.93713474  0.28222181     0.09900
C340        C  0.90933623  0.98516470  0.26655079     0.20900
C341        C  0.83721016  0.02817620  0.29695531    -0.54000
C342        C  0.88797731  0.02558499  0.30128415     0.10000
C343        C  0.83864060  0.99913492  0.21107425    -0.53500
C344        C  0.88976972  0.99509599  0.21294909     0.10600
H345        H  0.80164450  0.90977389  0.29116923     0.15100
H346        H  0.95061004  0.98233388  0.26918522     0.00900
H347        H  0.81595740  0.05408608  0.31837982     0.15400
H348        H  0.81775025  0.00485541  0.17668700     0.15200
C349        C  0.79461581  0.97019764  0.74481903     0.87000
C350        C  0.82020428  0.01800033  0.72079205    -0.53200
C351        C  0.87157808  0.01805173  0.71725851     0.09900
C352        C  0.89221393  0.97045044  0.74232012     0.20900
C353        C  0.81410276  0.92739661  0.71417725    -0.54000
C354        C  0.86508905  0.92803963  0.71192706     0.10000
C355        C  0.81826601  0.96498916  0.79673609    -0.53500
C356        C  0.86924995  0.96410905  0.79653769     0.10600
H357        H  0.79841366  0.04703934  0.70464484     0.15100
H358        H  0.93380094  0.97001600  0.74099397     0.00900
H359        H  0.78990590  0.90142391  0.69242061     0.15400
H360        H  0.79649634  0.96467099  0.83115467     0.15200
C361        C  0.74933701  0.49796026  0.30664295     0.87000
C362        C  0.76855977  0.54535400  0.33484914    -0.53200
C363        C  0.77300621  0.53978978  0.38524507     0.09900
C364        C  0.75191205  0.48696628  0.40368119     0.20900
C365        C  0.78410867  0.45750095  0.32434221    -0.54000
C366        C  0.78585098  0.45180649  0.37554234     0.10000
C367        C  0.69780091  0.48247218  0.32937411    -0.53500
C368        C  0.69768641  0.47563896  0.38025326     0.10600
H369        H  0.78398486  0.57888486  0.31563098     0.15100
H370        H  0.75313829  0.48252634  0.44503566     0.00900
H371        H  0.80728461  0.43793740  0.29849733     0.15400
H372        H  0.66341747  0.48160560  0.30741356     0.15200
C373        C  0.23458915  0.51326939  0.32826873     0.87000
C374        C  0.19057090  0.47793040  0.34418927    -0.53200
C375        C  0.18501236  0.47416448  0.39491975     0.09900
C376        C  0.22367985  0.50703789  0.42496770     0.20900
C377        C  0.22613800  0.56341080  0.35313521    -0.54000
C378        C  0.21498612  0.55995980  0.40302242     0.10000
C379        C  0.27948410  0.49359598  0.35451344    -0.53500
C380        C  0.27589632  0.49143952  0.40574921     0.10600
H381        H  0.16673978  0.45715106  0.31749018     0.15100
H382        H  0.21904019  0.50416718  0.46621204     0.00900
H383        H  0.22268094  0.59723029  0.33101229     0.15400
H384        H  0.31370152  0.48673558  0.33419651     0.15200
C385        C  0.17616696  0.01724919  0.25158431     0.87000
C386        C  0.16617399  0.05742360  0.29106607    -0.53200
C387        C  0.11696914  0.06865941  0.29391655     0.09900
C388        C  0.08247647  0.03862870  0.25697633     0.20900
C389        C  0.14068633  0.97247709  0.26584456    -0.54000
C390        C  0.09189031  0.98325155  0.27179208     0.10000
C391        C  0.15554959  0.03762240  0.20212034    -0.53500
C392        C  0.10645864  0.04977342  0.20364859     0.10600
H393        H  0.19517080  0.07472631  0.31506999     0.15100
H394        H  0.04242249  0.04749956  0.25954811     0.00900
H395        H  0.15435524  0.93674847  0.27787444     0.15400
H396        H  0.17647592  0.03666692  0.16722787     0.15200
C397        C  0.16361182  0.00776188  0.74717084     0.87000
C398        C  0.13561772  0.95836377  0.73173874    -0.53200
C399        C  0.08596064  0.96268711  0.72144736     0.09900
C400        C  0.06778458  0.01544028  0.73349984     0.20900
C401        C  0.15197766  0.04513619  0.70675031    -0.54000
C402        C  0.10187285  0.04949070  0.69972956     0.10000
C403        C  0.13705753  0.02571837  0.79285831    -0.53500
C404        C  0.08623707  0.02905918  0.78746333     0.10600
H405        H  0.15516480  0.92534917  0.72148245     0.15100
H406        H  0.02689049  0.01863834  0.72757712     0.00900
H407        H  0.18121869  0.06456595  0.68450688     0.15400
H408        H  0.15681939  0.03235970  0.82815341     0.15200
O409        O  0.75397401  0.67326642  0.96373333    -0.86000
O410        O  0.73745739  0.44255042  0.13327098    -0.86100
O411        O  0.67815171  0.59989095  0.09988655    -0.87800
O412        O  0.83900139  0.58714854  0.09056420    -0.86600
O413        O  0.89275103  0.54787036  0.03815317    -0.86200
O414        O  0.61214442  0.57797025  0.04715652    -0.87500
O415        O  0.74984462  0.52744781  0.14565684    -0.86000
O416        O  0.76095816  0.66032222  0.04860254    -0.85600
Zr417      Zr  0.75384907  0.56972419  0.06320164     2.84300
O418        O  0.79294004  0.49483902  0.05076375    -1.07600
O419        O  0.70432625  0.58595384  0.99298525    -1.08300
C420        C  0.75670061  0.68864504  0.00957308     1.07100
C421        C  0.74341198  0.48144081  0.16158480     1.07100
C422        C  0.63152790  0.59908610  0.08682806     1.10100
C423        C  0.88263617  0.57799506  0.07366581     1.07800
H424        H  0.67307727  0.50607437  0.08418051     0.33400
O425        O  0.69207633  0.50626731  0.05353937    -1.28500
H426        H  0.82872991  0.60435696  0.99579108     0.33100
O427        O  0.80427095  0.57654314  0.99154260    -1.30200
O428        O  0.71055622  0.35001894  0.00442607    -0.86000
O429        O  0.75318431  0.57758214  0.83213373    -0.87500
O430        O  0.59200449  0.47244647  0.04500144    -0.86000
O431        O  0.87435086  0.43427145  0.02622835    -0.86100
O432        O  0.89407478  0.56679399  0.92969737    -0.85800
O433        O  0.61280829  0.58583442  0.92956740    -0.85600
O434        O  0.64445481  0.43812525  0.86405577    -0.86000
O435        O  0.80370231  0.40401639  0.87645885    -0.85400
O436        O  0.59121000  0.47539218  0.91805482    -0.86500
O437        O  0.87083507  0.43394099  0.92408148    -0.85700
O438        O  0.64479015  0.41671529  0.07996445    -0.86100
O439        O  0.68051020  0.62937161  0.89278203    -0.85800
O440        O  0.84209621  0.62818032  0.90613491    -0.85400
O441        O  0.80657274  0.38876172  0.06043458    -0.85800
O442        O  0.71341419  0.36060826  0.91872166    -0.86100
O443        O  0.73989397  0.49227960  0.82237911    -0.87500
Zr444      Zr  0.72909190  0.43070487  0.04346663     2.83100
Zr445      Zr  0.75578985  0.59242940  0.92181529     2.83500
Zr446      Zr  0.64190571  0.52091355  0.98354011     2.84100
Zr447      Zr  0.84228777  0.50134747  0.97719929     2.83400
Zr448      Zr  0.72963787  0.44965273  0.90161812     2.84200
O449        O  0.79315603  0.51581955  0.90656629    -1.08000
O450        O  0.67785664  0.44357529  0.97322725    -1.07500
C451        C  0.70860877  0.33380482  0.95901714     1.07100
C452        C  0.74681126  0.53752499  0.80548738     1.09700
C453        C  0.60278095  0.43852031  0.07720317     1.07300
C454        C  0.85400390  0.39669962  0.05076532     1.07600
C455        C  0.88624959  0.61114231  0.91160040     1.07200
C456        C  0.63328144  0.61854751  0.89902664     1.06800
C457        C  0.60006425  0.45034635  0.87763148     1.07200
C458        C  0.84949503  0.40239276  0.89280506     1.06700
H459        H  0.67417362  0.53203505  0.88387474     0.33400
O460        O  0.69405185  0.52623870  0.91333681    -1.29100
H461        H  0.79255417  0.40503656  0.96921970     0.33400
O462        O  0.77841141  0.43734457  0.97195343    -1.30500
O463        O  0.26835079  0.66381003  0.07364225    -0.86000
O464        O  0.23498060  0.49348284  0.84827665    -0.86100
O465        O  0.33619865  0.61121664  0.91315386    -0.87800
O466        O  0.17501159  0.63387382  0.93533265    -0.86600
O467        O  0.10900103  0.58894010  0.97331756    -0.86200
O468        O  0.39133850  0.55688395  0.94632900    -0.87500
O469        O  0.24632296  0.57853607  0.85997058    -0.86000
O470        O  0.26814683  0.67392745  0.98781985    -0.85600
Zr471      Zr  0.25292354  0.59227200  0.94987147     2.84300
O472        O  0.19036534  0.52661026  0.94317986    -1.07600
O473        O  0.30534795  0.58183806  0.01992686    -1.08300
C474        C  0.27092288  0.69050270  0.03307271     1.07100
C475        C  0.24111242  0.53932505  0.83198039     1.07100
C476        C  0.37923856  0.59140665  0.91501093     1.10100
C477        C  0.12833600  0.62674353  0.94832979     1.07800
H478        H  0.31137494  0.51922595  0.90916566     0.33400
O479        O  0.29235193  0.51816195  0.93981142    -1.28500
H480        H  0.19002693  0.61594573  0.02531264     0.33100
O481        O  0.20492914  0.58415983  0.02218269    -1.30200
O482        O  0.22896241  0.36240180  0.94509065    -0.86000
O483        O  0.24749170  0.53093767  0.17194207    -0.87500
O484        O  0.37452221  0.44940664  0.94619602    -0.86000
O485        O  0.09194737  0.47322866  0.95699543    -0.86100
O486        O  0.11011327  0.58481352  0.07045684    -0.85800
O487        O  0.39303534  0.55032349  0.07656490    -0.85600
O488        O  0.30928173  0.39796380  0.10269389    -0.86000
O489        O  0.14678956  0.39396223  0.09118440    -0.85400
O490        O  0.37546958  0.44231035  0.06419138    -0.86500
O491        O  0.09226471  0.45233022  0.06589378    -0.85700
O492        O  0.30851914  0.42526144  0.89420964    -0.86100
O493        O  0.33933554  0.58679220  0.13078624    -0.85800
O494        O  0.17745428  0.61737068  0.11629034    -0.85400
O495        O  0.14614447  0.43298476  0.90588796    -0.85800
O496        O  0.23368038  0.35085516  0.03024723    -0.86100
O497        O  0.23500219  0.44556249  0.16185127    -0.87500
Zr498      Zr  0.23195937  0.45289536  0.93120076     2.83100
Zr499      Zr  0.25428953  0.57452100  0.09238301     2.83500
Zr500      Zr  0.34386031  0.50585885  0.00933243     2.84100
Zr501      Zr  0.14221563  0.51913865  0.01781903     2.83400
Zr502      Zr  0.23207495  0.43128477  0.07246983     2.84200
O503        O  0.19248719  0.50662006  0.08817262    -1.08000
O504        O  0.28303265  0.43884779  0.00095284    -1.07500
C505        C  0.23222241  0.33471543  0.98465201     1.07100
C506        C  0.24155248  0.48542853  0.18862787     1.09700
C507        C  0.35529322  0.42772572  0.90684691     1.07300
C508        C  0.10231811  0.44255878  0.92217338     1.07600
C509        C  0.13110148  0.61735688  0.10089595     1.07200
C510        C  0.38385213  0.57456490  0.11740451     1.06800
C511        C  0.35634559  0.40993263  0.09603070     1.07200
C512        C  0.10184539  0.40918536  0.08585497     1.06700
H513        H  0.31190198  0.49409659  0.10874944     0.33400
O514        O  0.29170460  0.49929615  0.07942698    -1.29100
H515        H  0.15827644  0.41650219  0.99963981     0.33400
O516        O  0.18211727  0.44495960  0.00329788    -1.30500
C517        C  0.03036416  0.75907626  0.80902471     0.87000
C518        C  0.07576119  0.73711480  0.83359148    -0.53200
C519        C  0.07344139  0.73621249  0.88452655     0.09900
C520        C  0.02619792  0.75841559  0.90651632     0.20900
C521        C  0.98491910  0.72765388  0.83030993    -0.54000
C522        C  0.98198780  0.72627336  0.88117405     0.10000
C523        C  0.02886789  0.81173935  0.83146442    -0.53500
C524        C  0.02886764  0.81241445  0.88256993     0.10600
H525        H  0.10572888  0.72097568  0.81269556     0.15100
H526        H  0.02477539  0.75785192  0.94811521     0.00900
H527        H  0.95793376  0.70662641  0.80675243     0.15400
H528        H  0.02769860  0.84562116  0.80877515     0.15200
C529        C  0.01151310  0.27756289  0.82735914     0.87000
C530        C  0.95906619  0.29493791  0.83942712    -0.53200
C531        C  0.94950198  0.30081004  0.88924318     0.09900
C532        C  0.99370855  0.28471051  0.92313737     0.20900
C533        C  0.04741187  0.31471313  0.85376189    -0.54000
C534        C  0.03694934  0.32015933  0.90341365     0.10000
C535        C  0.01623901  0.22870115  0.85566607    -0.53500
C536        C  0.00791480  0.23101281  0.90629410     0.10600
H537        H  0.93504865  0.30804743  0.80995742     0.15100
H538        H  0.98641647  0.28824104  0.96391337     0.00900
H539        H  0.07581416  0.33812747  0.83398071     0.15400
H540        H  0.02499185  0.19435123  0.83668823     0.15200
C541        C  0.48525980  0.68350755  0.75368632     0.87000
C542        C  0.44146807  0.65392233  0.77889456    -0.53200
C543        C  0.45055856  0.60526579  0.79013694     0.09900
C544        C  0.50109598  0.58894303  0.76822821     0.20900
C545        C  0.53095692  0.67544566  0.78617373    -0.54000
C546        C  0.53897575  0.62598435  0.79466473     0.10000
C547        C  0.49519393  0.65588531  0.70629910    -0.53500
C548        C  0.50329934  0.60583852  0.71197607     0.10600
H549        H  0.40910547  0.67211175  0.79321274     0.15100
H550        H  0.50739757  0.54860612  0.77456038     0.00900
H551        H  0.55344313  0.70670981  0.80188581     0.15400
H552        H  0.49528864  0.67518007  0.67025226     0.15200
C553        C  0.52393619  0.70579044  0.24407188     0.87000
C554        C  0.56115803  0.68659823  0.20627582    -0.53200
C555        C  0.56124154  0.63551638  0.20418258     0.09900
C556        C  0.52390264  0.60795085  0.24056041     0.20900
C557        C  0.47294885  0.67956654  0.22857050    -0.54000
C558        C  0.47255977  0.62867925  0.22510311     0.10000
C559        C  0.53788740  0.68147129  0.29422431    -0.53500
C560        C  0.53865117  0.63028747  0.29350471     0.10600
H561        H  0.58543567  0.71132028  0.18309412     0.15100
H562        H  0.52423460  0.56640495  0.23858615     0.00900
H563        H  0.44063053  0.69890373  0.21617933     0.15400
H564        H  0.54215743  0.70286673  0.32869626     0.15200
C565        C  0.95557871  0.26469814  0.19239703     0.87000
C566        C  0.00113034  0.29459429  0.16926697    -0.53200
C567        C  0.00119915  0.29702692  0.11817408     0.09900
C568        C  0.95471243  0.26614425  0.09495888     0.20900
C569        C  0.90999103  0.28876492  0.17050570    -0.54000
C570        C  0.90968663  0.28992256  0.11957410     0.10000
C571        C  0.95382117  0.21220612  0.16947662    -0.53500
C572        C  0.95097666  0.21181909  0.11857467     0.10600
H573        H  0.02985989  0.31417364  0.19195945     0.15100
H574        H  0.95390470  0.26696154  0.05332740     0.00900
H575        H  0.88168819  0.30563813  0.19307803     0.15400
H576        H  0.95520751  0.17807692  0.19177350     0.15200
C577        C  0.97117003  0.74272033  0.17089338     0.87000
C578        C  0.93498612  0.70579298  0.14432026    -0.53200
C579        C  0.94436385  0.70170618  0.09426256     0.09900
C580        C  0.98686512  0.73783774  0.07454269     0.20900
C581        C  0.02351028  0.72619135  0.15721096    -0.54000
C582        C  0.03186915  0.72080294  0.10703279     0.10000
C583        C  0.96541733  0.79213221  0.14388090    -0.53500
C584        C  0.97236424  0.79101521  0.09294557     0.10600
H585        H  0.90746938  0.68136777  0.16414845     0.15100
H586        H  0.99325893  0.73539905  0.03353494     0.00900
H587        H  0.04818616  0.71292045  0.18600184     0.15400
H588        H  0.95654739  0.82584561  0.16392681     0.15200
C589        C  0.45703951  0.31728437  0.75279707     0.87000
C590        C  0.50863484  0.34054558  0.76957885    -0.53200
C591        C  0.51201073  0.39169077  0.77159070     0.09900
C592        C  0.46267520  0.41505783  0.75370050     0.20900
C593        C  0.41984513  0.33947413  0.78845621    -0.54000
C594        C  0.42293733  0.39057063  0.78941520     0.10000
C595        C  0.44630151  0.34055211  0.70146556    -0.53500
C596        C  0.44812066  0.39177297  0.70104548     0.10600
H597        H  0.53878641  0.31814077  0.78261149     0.15100
H598        H  0.46483654  0.45676914  0.75450613     0.00900
H599        H  0.39394836  0.31680076  0.81193910     0.15400
H600        H  0.44127998  0.31834797  0.66758544     0.15200
C601        C  0.51712520  0.34906107  0.23367556     0.87000
C602        C  0.47372444  0.35568482  0.19702305    -0.53200
C603        C  0.45988754  0.40400966  0.19306764     0.09900
C604        C  0.49174843  0.44151690  0.22542773     0.20900
C605        C  0.55972385  0.38511190  0.21616424    -0.54000
C606        C  0.54573911  0.43263078  0.20673770     0.10000
C607        C  0.49976950  0.37072137  0.28230287    -0.53500
C608        C  0.48703322  0.41984030  0.27991406     0.10600
H609        H  0.45751718  0.32491358  0.17468636     0.15100
H610        H  0.48174843  0.48119379  0.22198139     0.00900
H611        H  0.59454682  0.37158883  0.20180965     0.15400
H612        H  0.49976777  0.34870456  0.31674965     0.15200
O613        O  0.57335351  0.39254149  0.57013418    -0.86000
O614        O  0.45682015  0.48658014  0.33619676    -0.86100
O615        O  0.46268056  0.35065342  0.46273183    -0.87800
O616        O  0.61339859  0.44294783  0.41255208    -0.86600
O617        O  0.64434355  0.52454000  0.42331561    -0.86200
O618        O  0.39904797  0.37347832  0.51394071    -0.87500
O619        O  0.50417248  0.42342154  0.36392808    -0.86000
O620        O  0.56249648  0.36226957  0.48995058    -0.85600
Zr621      Zr  0.52315376  0.42788412  0.44990311     2.84300
O622        O  0.52575344  0.50864616  0.41520040    -1.07600
O623        O  0.48903378  0.42866300  0.53094623    -1.08300
C624        C  0.57685020  0.35787361  0.53526449     1.07100
C625        C  0.48149098  0.44626515  0.32918851     1.07100
C626        C  0.42112517  0.34129377  0.48837840     1.10100
C627        C  0.64881371  0.47988300  0.40806574     1.07800
H628        H  0.41977572  0.43588464  0.42602331     0.33400
O629        O  0.44136770  0.45773156  0.44680867    -1.28500
H630        H  0.60671624  0.46657051  0.50215901     0.33100
O631        O  0.57400277  0.48006249  0.50043910    -1.30200
O632        O  0.41011101  0.62802509  0.42525676    -0.86000
O633        O  0.53025976  0.53589174  0.65786419    -0.87500
O634        O  0.33288439  0.46755739  0.47397034    -0.86000
O635        O  0.56724897  0.59778546  0.37564491    -0.86100
O636        O  0.65387343  0.55237339  0.52023690    -0.85800
O637        O  0.41991851  0.42132802  0.61782923    -0.85600
O638        O  0.37259694  0.57619694  0.58154259    -0.86000
O639        O  0.52276283  0.67045253  0.53194757    -0.85400
O640        O  0.34213344  0.49457097  0.57040923    -0.86500
O641        O  0.58835393  0.64696099  0.48353326    -0.85700
O642        O  0.35830673  0.52030455  0.40950517    -0.86100
O643        O  0.49987134  0.43816101  0.64807046    -0.85800
O644        O  0.62668264  0.50470442  0.58784399    -0.85400
O645        O  0.48612345  0.58495069  0.34715809    -0.85800
O646        O  0.41981585  0.65669175  0.50611814    -0.86100
O647        O  0.48194867  0.59800495  0.62962053    -0.87500
Zr648      Zr  0.44546026  0.54049041  0.41331701     2.83100
Zr649      Zr  0.54030024  0.48102026  0.58121084     2.83500
Zr650      Zr  0.40900780  0.45933820  0.52943619     2.84100
Zr651      Zr  0.57779014  0.56097549  0.46459532     2.83400
Zr652      Zr  0.46265270  0.59266947  0.54400268     2.84200
O653        O  0.54459959  0.56323356  0.54690573    -1.08000
O654        O  0.41175550  0.54010566  0.49403219    -1.07500
C655        C  0.40554924  0.66170453  0.46093336     1.07100
C656        C  0.50575507  0.57636823  0.66432597     1.09700
C657        C  0.32478233  0.49325668  0.43320294     1.07300
C658        C  0.53151477  0.60170928  0.34174421     1.07600
C659        C  0.66101202  0.52932070  0.56280674     1.07200
C660        C  0.45512463  0.41943113  0.65255300     1.06800
C661        C  0.33743305  0.53898587  0.58594353     1.07200
C662        C  0.56528229  0.67964275  0.50780926     1.06700
H663        H  0.44476780  0.51279904  0.61177508     0.33400
O664        O  0.45972004  0.51220125  0.57890790    -1.29100
H665        H  0.50003146  0.62529451  0.44835714     0.33400
O666        O  0.49770051  0.59205283  0.46306855    -1.30500
O667        O  0.10297005  0.92673715  0.07113946    -0.86000
O668        O  0.01499477  0.05211385  0.84078347    -0.86100
O669        O  0.05770091  0.89544141  0.91642298    -0.87800
O670        O  0.14807573  0.04380162  0.96765953    -0.86600
O671        O  0.12213314  0.10896746  0.01464427    -0.86200
O672        O  0.97616497  0.86288990  0.92345336    -0.87500
O673        O  0.07925109  0.00652874  0.86942149    -0.86000
O674        O  0.13562805  0.94292779  0.99255190    -0.85600
Zr675      Zr  0.07091803  0.98429623  0.95404341     2.84300
O676        O  0.03988187  0.06531856  0.95069734    -1.07600
O677        O  0.01893589  0.93024179  0.00227323    -1.08300
C678        C  0.13833943  0.92503276  0.03671350     1.07100
C679        C  0.05683650  0.02979449  0.83487860     1.07100
C680        C  0.02155730  0.85993213  0.90997742     1.10100
C681        C  0.15589860  0.08633804  0.99160499     1.07800
H682        H  0.99241879  0.96592919  0.88547927     0.33400
O683        O  0.99072704  0.98007090  0.91859353    -1.28500
H684        H  0.10132963  0.01894569  0.05046051     0.33100
O685        O  0.06835157  0.01664979  0.03536745    -1.30200
O686        O  0.87012256  0.09406781  0.92765301    -0.86000
O687        O  0.95860404  0.97299128  0.15728687    -0.87500
O688        O  0.90125920  0.93705426  0.87879932    -0.86000
O689        O  0.02716801  0.17353178  0.97718159    -0.86100
O690        O  0.07372447  0.08151400  0.12221606    -0.85800
O691        O  0.95010507  0.84893263  0.02288378    -0.85600
O692        O  0.82686288  0.98047555  0.03244350    -0.86000
O693        O  0.91954675  0.12913858  0.08459612    -0.85400
O694        O  0.85221474  0.91751261  0.98225354    -0.86500
O695        O  0.00169864  0.15999860  0.07792219    -0.85700
O696        O  0.91411418  0.01816284  0.84956211    -0.86100
O697        O  0.99623040  0.87524516  0.09144961    -0.85800
O698        O  0.05973988  0.99998617  0.14988671    -0.85400
O699        O  0.98008314  0.14770498  0.90881723    -0.85800
O700        O  0.83851203  0.07945902  0.00692423    -0.86100
O701        O  0.89546691  0.02188099  0.13178715    -0.87500
Zr702      Zr  0.95794265  0.06019622  0.91581914     2.83100
Zr703      Zr  0.01595330  0.96236956  0.08301524     2.83500
Zr704      Zr  0.93852972  0.92638572  0.96710364     2.84100
Zr705      Zr  0.03663973  0.09626656  0.03333822     2.83400
Zr706      Zr  0.90413444  0.03999800  0.04630247     2.84200
O707        O  0.98423432  0.04272184  0.08181870    -1.08000
O708        O  0.90696292  0.00643166  0.96541459    -1.07500
C709        C  0.83505850  0.09620648  0.96239054     1.07100
C710        C  0.91798162  0.99693169  0.16493679     1.09700
C711        C  0.89754099  0.97254549  0.84455389     1.07300
C712        C  0.00454784  0.18169796  0.93432927     1.07600
C713        C  0.07722438  0.04496014  0.15568264     1.07200
C714        C  0.97313655  0.84084546  0.06557430     1.06800
C715        C  0.81869399  0.93900352  0.00672906     1.07200
C716        C  0.95649505  0.16399185  0.09114935     1.06700
H717        H  0.91195764  0.93596518  0.06969275     0.33400
O718        O  0.93391931  0.95792761  0.04938815    -1.29100
H719        H  0.94248916  0.12536331  0.99553307     0.33400
O720        O  0.95606534  0.09276320  0.99693714    -1.30500
C721        C  0.05599856  0.36502191  0.92991871    -0.15900
C722        C  0.06200777  0.40898892  0.90516846    -0.31100
H723        H  0.07097891  0.36059927  0.96752149     0.13100
H724        H  0.04777668  0.41373845  0.86734828     0.13700
C725        C  0.05893605  0.37654808  0.10822342    -0.15900
C726        C  0.03949649  0.33142907  0.08971996    -0.31100
H727        H  0.04369796  0.39007819  0.14298322     0.13100
H728        H  0.05168487  0.31937222  0.05315736     0.13700
C729        C  0.06726281  0.68243439  0.08880236    -0.15900
C730        C  0.10046127  0.65884685  0.11861478    -0.31100
H731        H  0.06332875  0.67085257  0.04994106     0.13100
H732        H  0.10799668  0.67167919  0.15644951     0.13700
C733        C  0.10940287  0.70812354  0.91265892    -0.15900
C734        C  0.09351613  0.66470778  0.93405578    -0.31100
H735        H  0.14913683  0.71673747  0.90578004     0.13100
H736        H  0.05346899  0.65556730  0.93857885     0.13700
C737        C  0.38963401  0.40439802  0.87290110    -0.15900
C738        C  0.39266090  0.41828853  0.82447744    -0.31100
H739        H  0.41320482  0.37596664  0.88775228     0.13100
H740        H  0.37259727  0.44977346  0.81055133     0.13700
C741        C  0.41594875  0.60904276  0.87651143    -0.15900
C742        C  0.42591505  0.58129368  0.83548847    -0.31100
H743        H  0.42790986  0.64868572  0.87736552     0.13100
H744        H  0.41409093  0.54163219  0.83433046     0.13700
C745        C  0.42868667  0.60083232  0.19918839    -0.15900
C746        C  0.42907588  0.59052123  0.14925828    -0.31100
H747        H  0.39312825  0.59757848  0.21903160     0.13100
H748        H  0.46491229  0.59485804  0.12995109     0.13700
C749        C  0.42394856  0.42051746  0.15552079    -0.15900
C750        C  0.39107343  0.38892843  0.13140957    -0.31100
H751        H  0.42445250  0.46061479  0.14768063     0.13100
H752        H  0.38586757  0.34956069  0.14168449     0.13700
C753        C  0.56579014  0.45502184  0.15904399    -0.15900
C754        C  0.56632166  0.42649416  0.11703119    -0.31100
H755        H  0.58617802  0.49146421  0.16018796     0.13100
H756        H  0.54760846  0.38915915  0.11674597     0.13700
C757        C  0.59367918  0.60973713  0.16915808    -0.15900
C758        C  0.59757675  0.62366481  0.12071322    -0.31100
H759        H  0.61356616  0.57814103  0.18305662     0.13100
H760        H  0.57419433  0.65207953  0.10555247     0.13700
C761        C  0.57487595  0.60912420  0.83174772    -0.15900
C762        C  0.59993269  0.64037666  0.86366666    -0.31100
H763        H  0.57917583  0.56887834  0.83444776     0.13100
H764        H  0.59859231  0.68082332  0.86234957     0.13700
C765        C  0.55491736  0.43380402  0.84598436    -0.15900
C766        C  0.55653064  0.41826867  0.79751107    -0.31100
H767        H  0.51844305  0.43326664  0.86410996     0.13100
H768        H  0.59281459  0.41728304  0.77930592     0.13700
C769        C  0.87292114  0.31844726  0.09309939    -0.15900
C770        C  0.88870585  0.36009313  0.06853527    -0.31100
H771        H  0.83337978  0.31065658  0.10152409     0.13100
H772        H  0.92875838  0.36868301  0.06322245     0.13700
C773        C  0.87917063  0.36003890  0.87585707    -0.15900
C774        C  0.91267496  0.33791944  0.90633135    -0.31100
H775        H  0.87163616  0.34608240  0.83836105     0.13100
H776        H  0.91624394  0.35048742  0.94491191     0.13700
C777        C  0.93100900  0.64382254  0.89372690    -0.15900
C778        C  0.94162713  0.69286014  0.90708004    -0.31100
H779        H  0.95653239  0.62658937  0.86826090     0.13100
H780        H  0.91917363  0.70943010  0.93578863     0.13700
C781        C  0.92257667  0.61217455  0.09050702    -0.15900
C782        C  0.92609322  0.65699739  0.06709094    -0.31100
H783        H  0.93794599  0.60699725  0.12780904     0.13100
H784        H  0.90994720  0.66193055  0.03003724     0.13700
C785        C  0.23997564  0.51855579  0.27292331    -0.15900
C786        C  0.24185107  0.47868910  0.24296587    -0.31100
H787        H  0.23955072  0.55609566  0.25688432     0.13100
H788        H  0.24110397  0.44095429  0.25867914     0.13700
C789        C  0.74949130  0.50782524  0.25049986    -0.15900
C790        C  0.74164368  0.47144119  0.21637806    -0.31100
H791        H  0.75788531  0.54609473  0.23742400     0.13100
H792        H  0.73403939  0.43295717  0.22911626     0.13700
C793        C  0.23654930  0.51143013  0.74372180    -0.15900
C794        C  0.24328054  0.54859700  0.77713489    -0.31100
H795        H  0.22871215  0.47331955  0.75748290     0.13100
H796        H  0.25030360  0.58695466  0.76379997     0.13700
C797        C  0.74746920  0.50257045  0.72184002    -0.15900
C798        C  0.74752837  0.54331338  0.75104659    -0.31100
H799        H  0.74645280  0.46519452  0.73841784     0.13100
H800        H  0.74963425  0.58077907  0.73463307     0.13700
C801        C  0.99511626  0.24925964  0.27448417    -0.15900
C802        C  0.95573619  0.26416011  0.24843780    -0.31100
H803        H  0.02883398  0.23902119  0.25519071     0.13100
H804        H  0.92323501  0.27694736  0.26808599     0.13700
C805        C  0.02127190  0.27526849  0.77199299    -0.15900
C806        C  0.98648164  0.25369548  0.74171712    -0.31100
H807        H  0.05383535  0.29614810  0.75617178     0.13100
H808        H  0.95295854  0.23471977  0.75777502     0.13700
C809        C  0.85172092  0.38917785  0.38068959    -0.15900
C810        C  0.82253036  0.42179716  0.40289821    -0.31100
H811        H  0.84683374  0.38022979  0.34130928     0.13100
H812        H  0.82558975  0.42695234  0.44312412     0.13700
C813        C  0.83979648  0.40277818  0.59981895    -0.15900
C814        C  0.80585518  0.42498238  0.57026703    -0.31100
H815        H  0.83845790  0.40606653  0.64026430     0.13100
H816        H  0.80849792  0.42180577  0.52987380     0.13700
C817        C  0.12528196  0.44418509  0.58631347    -0.15900
C818        C  0.17624104  0.43990871  0.58426307    -0.31100
H819        H  0.11118564  0.47946275  0.59847261     0.13100
H820        H  0.18986029  0.40452869  0.57180302     0.13700
C821        C  0.10234273  0.42906029  0.39408888    -0.15900
C822        C  0.14526737  0.44191776  0.41825459    -0.31100
H823        H  0.09251435  0.44549806  0.35835397     0.13100
H824        H  0.15229314  0.42672619  0.45537957     0.13700
C825        C  0.11043585  0.11884086  0.64078214    -0.15900
C826        C  0.08250163  0.08038201  0.66035342    -0.31100
H827        H  0.14686641  0.13124437  0.65588257     0.13100
H828        H  0.04380053  0.07242459  0.64853248     0.13700
C829        C  0.88299904  0.08290509  0.64669479    -0.15900
C830        C  0.90303905  0.05326691  0.68257530    -0.31100
H831        H  0.84255659  0.08336092  0.64392145     0.13100
H832        H  0.94361140  0.05339503  0.68573062     0.13700
C833        C  0.89616325  0.06822249  0.38405168    -0.15900
C834        C  0.91719899  0.05589082  0.33981067    -0.31100
H835        H  0.85887326  0.05264977  0.39374464     0.13100
H836        H  0.95513075  0.07011772  0.33077810     0.13700
C837        C  0.09804400  0.10438175  0.33076387    -0.15900
C838        C  0.10284398  0.09810451  0.38082764    -0.31100
H839        H  0.07655305  0.13466201  0.31635709     0.13100
H840        H  0.11933240  0.06482945  0.39560959     0.13700
C841        C  0.96245466  0.74367367  0.22660099    -0.15900
C842        C  0.99671163  0.76635671  0.25676228    -0.31100
H843        H  0.93069256  0.72168808  0.24261880     0.13100
H844        H  0.02956035  0.78637370  0.24048170     0.13700
C845        C  0.99195921  0.76760927  0.72516220    -0.15900
C846        C  0.03236699  0.75834595  0.75284725    -0.31100
H847        H  0.95710366  0.77621734  0.74334370     0.13100
H848        H  0.06645875  0.74740866  0.73470637     0.13700
C849        C  0.14765811  0.62152531  0.39503766    -0.15900
C850        C  0.17535809  0.59155484  0.42405782    -0.31100
H851        H  0.15586399  0.62755490  0.35572409     0.13100
H852        H  0.16593525  0.58681446  0.46335610     0.13700
C853        C  0.16276284  0.59216469  0.58964532    -0.15900
C854        C  0.13425408  0.62513885  0.61181324    -0.31100
H855        H  0.15923392  0.58613694  0.54959975     0.13100
H856        H  0.13993391  0.63492933  0.65087108     0.13700
C857        C  0.88642669  0.58060001  0.59822213    -0.15900
C858        C  0.84224555  0.57234469  0.57498728    -0.31100
H859        H  0.89647083  0.56100893  0.63223751     0.13100
H860        H  0.83453541  0.59094336  0.53961473     0.13700
C861        C  0.86099715  0.57223272  0.40955278    -0.15900
C862        C  0.81003019  0.57544567  0.41233613    -0.31100
H863        H  0.87565214  0.53771438  0.39603195     0.13100
H864        H  0.79563240  0.60988653  0.42638414     0.13700
C865        C  0.07968489  0.94296724  0.35566036    -0.15900
C866        C  0.06117698  0.95190503  0.30903784    -0.31100
H867        H  0.11414407  0.96341231  0.36738363     0.13100
H868        H  0.02672099  0.93207410  0.29650571     0.13700
C869        C  0.89710281  0.90286021  0.31887988    -0.15900
C870        C  0.87584765  0.90124257  0.36431057    -0.31100
H871        H  0.92906668  0.88113050  0.30988229     0.13100
H872        H  0.84775781  0.92688880  0.37540140     0.13700
C873        C  0.88968957  0.89974430  0.67310063    -0.15900
C874        C  0.87764135  0.90567421  0.62447461    -0.31100
H875        H  0.91747272  0.87372267  0.68439281     0.13100
H876        H  0.85311229  0.93454490  0.61251756     0.13700
C877        C  0.07092376  0.93971678  0.63228603    -0.15900
C878        C  0.06327336  0.92956294  0.68168582    -0.31100
H879        H  0.08744095  0.97604681  0.62039170     0.13100
H880        H  0.04677748  0.89302503  0.69307330     0.13700
C881        C  0.25007756  0.75477686  0.47061664    -0.15900
C882        C  0.22619871  0.79347485  0.48921086    -0.31100
H883        H  0.22866490  0.72183554  0.45637730     0.13100
H884        H  0.24670061  0.82549040  0.50618359     0.13700
C885        C  0.25267622  0.24888893  0.48417352    -0.15900
C886        C  0.22511034  0.27255544  0.51744614    -0.31100
H887        H  0.23400922  0.23009430  0.45257770     0.13100
H888        H  0.24320875  0.28935562  0.55038531     0.13700
C889        C  0.70294684  0.27969485  0.95352393    -0.15900
C890        C  0.74404273  0.25369812  0.94875207    -0.31100
H891        H  0.66666684  0.26061918  0.96148053     0.13100
H892        H  0.78048388  0.27346333  0.94288626     0.13700
C893        C  0.25125988  0.25074664  0.01419592    -0.15900
C894        C  0.23540428  0.28025735  0.97715424    -0.31100
H895        H  0.26192356  0.26738720  0.05008144     0.13100
H896        H  0.22606656  0.26426046  0.94068697     0.13700
C897        C  0.73264000  0.77280919  0.51219580    -0.15900
C898        C  0.75938281  0.74497874  0.48176889    -0.31100
H899        H  0.75161298  0.79313272  0.54270984     0.13100
H900        H  0.74095606  0.72672017  0.44974410     0.13700
C901        C  0.72679064  0.77163329  0.98789415    -0.15900
C902        C  0.75330149  0.74285065  0.01854769    -0.31100
H903        H  0.70807422  0.75483030  0.95529785     0.13100
H904        H  0.76998764  0.75889657  0.05250616     0.13700
C905        C  0.27524848  0.74482600  0.03817939    -0.15900
C906        C  0.23381375  0.76974287  0.04566890    -0.31100
H907        H  0.31059840  0.76488131  0.02848862     0.13100
H908        H  0.19819308  0.74895495  0.05303831     0.13700
C909        C  0.23012298  0.00259914  0.24978060    -0.15100
C910        C  0.26667261  0.03698769  0.23872120    -0.31100
H911        H  0.23942768  0.96471703  0.25980349     0.13100
H912        H  0.25612781  0.07470663  0.22935089     0.13700
C913        C  0.73373721  0.03380773  0.24879296    -0.15900
C914        C  0.75646589  0.99161700  0.25874097    -0.31100
H915        H  0.75573424  0.06861679  0.24096690     0.13100
H916        H  0.73416505  0.95732318  0.26799369     0.13700
C917        C  0.39650279  0.88728215  0.40963171    -0.15900
C918        C  0.40658225  0.83899441  0.40305563    -0.31100
H919        H  0.37253224  0.89824654  0.44007156     0.13100
H920        H  0.43314947  0.82852871  0.37468074     0.13700
C921        C  0.58937363  0.83764993  0.41101734    -0.15900
C922        C  0.59645484  0.88850224  0.41396109    -0.31100
H923        H  0.56868802  0.82084952  0.37962402     0.13100
H924        H  0.61405141  0.90467651  0.44740865     0.13700
C925        C  0.40765661  0.17556367  0.42342040    -0.15900
C926        C  0.38557192  0.13142373  0.41062295    -0.31100
H927        H  0.44562685  0.18682197  0.41134222     0.13100
H928        H  0.34859276  0.11826654  0.42393776     0.13700
C929        C  0.49664890  0.26096513  0.25214756    -0.15900
C930        C  0.53154041  0.29565847  0.23753348    -0.31100
H931        H  0.45982531  0.27285918  0.26276459     0.13100
H932        H  0.56842557  0.28518555  0.22573003     0.13700
C933        C  0.48755326  0.79176819  0.24012986    -0.15900
C934        C  0.52699115  0.76295542  0.24609220    -0.31100
H935        H  0.44989341  0.77509346  0.23591095     0.13100
H936        H  0.56391447  0.78112399  0.25297478     0.13700
C937        C  0.65030276  0.13385670  0.08679696    -0.15900
C938        C  0.67575475  0.10764374  0.05218458    -0.31100
H939        H  0.66133686  0.17310057  0.09282358     0.13100
H940        H  0.66625725  0.06763268  0.04881229     0.13700
C941        C  0.62136827  0.92439984  0.08364029    -0.15900
C942        C  0.66519228  0.90616857  0.09584165    -0.31100
H943        H  0.61057844  0.92787825  0.04454281     0.13100
H944        H  0.67683521  0.90133386  0.13453337     0.13700
C945        C  0.36194986  0.92867514  0.08448662    -0.15900
C946        C  0.31366451  0.93447634  0.09652450    -0.31100
H947        H  0.37195138  0.90717844  0.05188306     0.13100
H948        H  0.30407485  0.95751201  0.12818875     0.13700
C949        C  0.31871251  0.09821602  0.08347242    -0.15900
C950        C  0.36589242  0.12019365  0.08393374    -0.31100
H951        H  0.30913957  0.06559723  0.10692217     0.13100
H952        H  0.37599144  0.15126164  0.05866915     0.13700
C953        C  0.75706695  0.22772658  0.50819469    -0.15900
C954        C  0.73274128  0.26571285  0.52767229    -0.31100
H955        H  0.73681822  0.19609078  0.49028479     0.13100
H956        H  0.75379125  0.29845428  0.54279086     0.13700
C957        C  0.60300399  0.16926747  0.41556463    -0.15900
C958        C  0.57729710  0.20419615  0.44070829    -0.31100
H959        H  0.64331904  0.16878497  0.42005487     0.13100
H960        H  0.53680307  0.20376860  0.43666155     0.13700
C961        C  0.21852075  0.00468230  0.75457947    -0.15900
C962        C  0.24717887  0.98999390  0.71731933    -0.31100
H963        H  0.23559287  0.01669146  0.78999007     0.13100
H964        H  0.23119629  0.97622102  0.68212738     0.13700
C965        C  0.73795559  0.96893120  0.74523654    -0.15900
C966        C  0.71246825  0.00667574  0.76343624    -0.31100
H967        H  0.71722414  0.93676280  0.72866209     0.13100
H968        H  0.73273287  0.04029257  0.77749080     0.13700
C969        C  0.39530521  0.18159550  0.58164494    -0.15900
C970        C  0.40786089  0.13410772  0.57092736    -0.31100
H971        H  0.39198177  0.19265302  0.62056861     0.13100
H972        H  0.41003836  0.12267721  0.53199869     0.13700
C973        C  0.58712375  0.13089736  0.58782337    -0.15900
C974        C  0.57527376  0.17910805  0.59185879    -0.31100
H975        H  0.61323607  0.11970799  0.55935737     0.13100
H976        H  0.54631636  0.18942038  0.61780652     0.13700
C977        C  0.59311470  0.86282312  0.61382809    -0.15900
C978        C  0.57612719  0.84873395  0.56877500    -0.31100
H979        H  0.62473318  0.84550084  0.63101311     0.13100
H980        H  0.54153739  0.86227151  0.55373527     0.13700
C981        C  0.40752075  0.81908274  0.55325713    -0.15900
C982        C  0.38385843  0.84350346  0.59056846    -0.31100
H983        H  0.44655647  0.83007570  0.54537308     0.13100
H984        H  0.34576097  0.83124902  0.60034558     0.13700
C985        C  0.45291567  0.26077689  0.75376059    -0.15900
C986        C  0.48821042  0.23339948  0.73390293    -0.31100
H987        H  0.42165899  0.24179615  0.77377109     0.13100
H988        H  0.52135908  0.25179133  0.71663983     0.13700
C989        C  0.46888376  0.76793219  0.78373862    -0.15900
C990        C  0.47659987  0.73777621  0.74517533    -0.31100
H991        H  0.46720797  0.75354448  0.82193621     0.13100
H992        H  0.47910505  0.75333536  0.70737017     0.13700
C993        C  0.34488589  0.12302465  0.89080721    -0.15900
C994        C  0.32615360  0.10195419  0.93275170    -0.31100
H995        H  0.33213761  0.15843814  0.87696769     0.13100
H996        H  0.33553522  0.06426247  0.94348641     0.13700
C997        C  0.29725167  0.92298777  0.94893013    -0.15900
C998        C  0.31828426  0.90070785  0.90895867    -0.31100
H999        H  0.30954165  0.96155275  0.95750808     0.13100
H1000       H  0.30362587  0.86351291  0.89821461     0.13700
C1001       C  0.59950721  0.91992823  0.93509326    -0.15900
C1002       C  0.64973628  0.93141548  0.93550095    -0.31100
H1003       H  0.58295078  0.89461375  0.96337553     0.13100
H1004       H  0.66620867  0.95809404  0.90837382     0.13700
C1005       C  0.61045175  0.09847420  0.91615570    -0.15900
C1006       C  0.65836247  0.08935536  0.90535949    -0.31100
H1007       H  0.60137243  0.12201927  0.94758658     0.13100
H1008       H  0.66698463  0.06437648  0.87491311     0.13700
loop_ 
_geom_bond_atom_site_label_1 
_geom_bond_atom_site_label_2 
_geom_bond_distance 
_geom_bond_site_symmetry_2 
_ccdc_geom_bond_type 
O1          Zr37   2.448       .  S
O1           C12   1.293       .  A
O2          Zr36   2.447   1_545  S
O2           C13   1.293       .  A
O3           Zr9   2.439       .  S
O3           C14   1.290       .  A
O4           Zr9   2.425       .  S
O4           C15   1.288       .  A
O5          Zr39   2.432       .  S
O5           C15   1.291       .  A
O6          Zr38   2.439       .  S
O6           C14   1.292   1_565  A
O7           Zr9   2.420       .  S
O7           C13   1.289       .  A
O8           Zr9   2.409       .  S
O8           C12   1.288       .  A
Zr9          O10   2.310       .  S
Zr9          O11   2.312       .  S
Zr9          O19   2.349       .  S
Zr9          O17   2.339   1_545  S
O10         Zr36   2.321   1_545  S
O10         Zr39   2.299       .  S
O11         Zr37   2.330       .  S
O11         Zr38   2.291   1_545  S
C12        C1005   1.461       .  S
C13         C973   1.464       .  S
C14         C966   1.475       .  S
C15         C986   1.465       .  S
H16          O17   0.965       .  S
O17         Zr36   2.368       .  S
O17         Zr38   2.356       .  S
H18          O19   0.964       .  S
O19         Zr37   2.367       .  S
O19         Zr39   2.353       .  S
O20         Zr36   2.493       .  S
O20          C43   1.302       .  A
O21         Zr37   2.497   1_565  S
O21          C44   1.303       .  A
O22         Zr38   2.387       .  S
O22          C45   1.282       .  A
O23         Zr39   2.434       .  S
O23          C46   1.290       .  A
O24         Zr39   2.403       .  S
O24          C47   1.284       .  A
O25         Zr38   2.436       .  S
O25          C48   1.290       .  A
O26         Zr40   2.423       .  S
O26          C49   1.288       .  A
O27         Zr40   2.401       .  S
O27          C50   1.284       .  A
O28         Zr38   2.426       .  S
O28          C49   1.289       .  A
O29         Zr39   2.426       .  S
O29          C50   1.291   1_545  A
O30         Zr36   2.415       .  S
O30          C45   1.290       .  A
O31         Zr37   2.480   1_565  S
O31          C48   1.300       .  A
O32         Zr37   2.427       .  S
O32          C47   1.292       .  A
O33         Zr36   2.495   1_545  S
O33          C46   1.303       .  A
O34         Zr40   2.459       .  S
O34          C43   1.296       .  A
O35         Zr40   2.464       .  S
O35          C44   1.297       .  A
Zr36         O42   2.341       .  S
Zr36         O54   2.337       .  S
Zr37         O41   2.341       .  S
Zr37         O52   2.338   1_545  S
Zr38         O42   2.331       .  S
Zr38         O52   2.357       .  S
Zr39         O41   2.338       .  S
Zr39         O54   2.359   1_545  S
Zr40         O41   2.332   1_565  S
Zr40         O42   2.317       .  S
Zr40         O54   2.368       .  S
Zr40         O52   2.359       .  S
C43         C982   1.505       .  S
C44         C998   1.508       .  S
C45         C977   1.438       .  S
C46         C970   1.503       .  S
C47         C993   1.451       .  S
C48        C1001   1.487       .  S
C49         C989   1.448       .  S
C50         C962   1.437       .  S
H51          O52   0.964       .  S
H53          O54   0.968       .  S
C55          C56   1.526       .  S
C55          C61   1.529       .  S
C55          C59   1.538       .  S
C55         C954   1.498       .  S
C56          H63   1.087       .  S
C56          C57   1.360       .  D
C57          C58   1.540       .  S
C57         C974   1.471       .  S
C58          C62   1.585       .  S
C58          C60   1.560       .  S
C58          H64   1.110       .  S
C59          H65   1.085       .  S
C59          C60   1.364       .  D
C60         C958   1.522       .  S
C61          H66   1.087       .  S
C61          C62   1.364       .  D
C62         C624   1.497       .  S
O67        Zr103   2.490       .  S
O67          C78   1.301       .  A
O68        Zr102   2.508       .  S
O68          C79   1.304       .  A
O69         Zr75   2.417       .  S
O69          C80   1.288       .  A
O70         Zr75   2.463       .  S
O70          C81   1.296       .  A
O71        Zr105   2.371       .  S
O71          C81   1.278       .  A
O72        Zr104   2.422       .  S
O72          C80   1.293   1_565  A
O73         Zr75   2.467       .  S
O73          C79   1.298       .  A
O74         Zr75   2.470       .  S
O74          C78   1.298       .  A
Zr75         O76   2.357       .  S
Zr75         O77   2.382       .  S
Zr75         O85   2.323       .  S
Zr75         O83   2.341       .  S
O76        Zr102   2.356       .  S
O76        Zr105   2.347       .  S
O77        Zr103   2.341       .  S
O77        Zr104   2.360   1_545  S
C78         C957   1.498       .  S
C79         C937   1.510       .  S
C80         C913   1.461       .  S
C81         C929   1.454       .  S
H82          O83   0.966       .  S
O83        Zr102   2.329       .  S
O83        Zr104   2.334   1_545  S
H84          O85   0.964       .  S
O85        Zr103   2.350       .  S
O85        Zr105   2.317       .  S
O86        Zr102   2.460   1_565  S
O86         C109   1.295       .  A
O87        Zr103   2.447   1_565  S
O87         C110   1.293       .  A
O88        Zr104   2.417       .  S
O88         C111   1.290       .  A
O89        Zr105   2.440       .  S
O89         C112   1.291       .  A
O90        Zr105   2.409       .  S
O90         C113   1.286       .  A
O91        Zr104   2.465       .  S
O91         C114   1.295       .  A
O92        Zr106   2.436       .  S
O92         C115   1.292       .  A
O93        Zr106   2.499       .  S
O93         C116   1.303   1_565  A
O94        Zr104   2.442       .  S
O94         C115   1.293       .  A
O95        Zr105   2.371       .  S
O95         C116   1.277       .  A
O96        Zr102   2.400   1_565  S
O96         C111   1.284       .  A
O97        Zr103   2.480   1_565  S
O97         C114   1.299       .  A
O98        Zr103   2.387       .  S
O98         C113   1.281       .  A
O99        Zr102   2.454       .  S
O99         C112   1.294       .  A
O100       Zr106   2.405       .  S
O100        C109   1.288       .  A
O101       Zr106   2.425       .  S
O101        C110   1.291       .  A
Zr102       O108   2.365   1_545  S
Zr102       O120   2.332       .  S
Zr103       O107   2.367       .  S
Zr103       O118   2.327   1_545  S
Zr104       O108   2.347       .  S
Zr104       O118   2.301       .  S
Zr105       O107   2.339       .  S
Zr105       O120   2.286       .  S
Zr106       O107   2.327   1_565  S
Zr106       O108   2.357       .  S
Zr106       O120   2.308   1_565  S
Zr106       O118   2.331       .  S
C109        C945   1.459       .  S
C110        C917   1.458       .  S
C111        C941   1.448       .  S
C112        C950   1.471       .  S
C113        C926   1.422       .  S
C114        C922   1.500       .  S
C115        C933   1.476       .  S
C116        C910   1.472       .  S
H117        O118   0.963       .  S
H119        O120   0.961       .  S
C121        C122   1.547   1_554  S
C121        C127   1.530       .  S
C121        C125   1.527       .  S
C121        C906   1.502       .  S
C122        H129   1.084       .  S
C122        C123   1.371       .  D
C123        C124   1.556   1_556  S
C123        C997   1.524       .  S
C124        C128   1.575       .  S
C124        C126   1.532       .  S
C124        H130   1.111       .  S
C125        H131   1.087       .  S
C125        C126   1.361       .  D
C126        C946   1.460       .  S
C127        H132   1.087       .  S
C127        C128   1.359       .  D
C128        C678   1.489       .  S
C133        C134   1.524   1_556  S
C133        C139   1.516       .  S
C133        C137   1.533       .  S
C133        C901   1.512       .  S
C134        H141   1.087       .  S
C134        C135   1.361       .  D
C135        C136   1.541       .  S
C135        C942   1.446       .  S
C136        C140   1.547       .  S
C136        C138   1.557   1_554  S
C136        H142   1.111       .  S
C137        H143   1.086       .  S
C137        C138   1.366       .  D
C138       C1002   1.493       .  S
C139        H144   1.087       .  S
C139        C140   1.378   1_556  D
C140        C715   1.500       .  S
C145        C146   1.539       .  S
C145        C151   1.518       .  S
C145        C149   1.515       .  S
C145        C897   1.514       .  S
C146        H153   1.086       .  S
C146        C147   1.371       .  D
C147        C148   1.559       .  S
C147        C921   1.504       .  S
C148        C152   1.558       .  S
C148        C150   1.532       .  S
C148        H154   1.111       .  S
C149        H155   1.085       .  S
C149        C150   1.369       .  D
C150        C978   1.456       .  S
C151        H156   1.088       .  S
C151        C152   1.371       .  D
C152        C662   1.499       .  S
C157        C158   1.527       .  S
C157        C163   1.513   1_554  S
C157        C161   1.528   1_554  S
C157        C893   1.506       .  S
C158        H165   1.087       .  S
C158        C159   1.362       .  D
C159        C160   1.552       .  S
C159        C949   1.488       .  S
C160        C164   1.553   1_554  S
C160        C162   1.533   1_554  S
C160        H166   1.111       .  S
C161        H167   1.085       .  S
C161        C162   1.373       .  D
C162        C994   1.461       .  S
C163        H168   1.087       .  S
C163        C164   1.373       .  D
C164        C681   1.494       .  S
C169        C170   1.527       .  S
C169        C175   1.527       .  S
C169        C173   1.545   1_556  S
C169        C890   1.499       .  S
C170        H177   1.087       .  S
C170        C171   1.361       .  D
C171        C172   1.534       .  S
C171       C1006   1.462       .  S
C172        C176   1.581       .  S
C172        C174   1.560   1_556  S
C172        H178   1.111       .  S
C173        H179   1.083       .  S
C173        C174   1.370       .  D
C174        C938   1.528       .  S
C175        H180   1.087       .  S
C175        C176   1.358       .  D
C176        C709   1.493       .  S
C181        C182   1.517       .  S
C181        C187   1.517       .  S
C181        C185   1.537       .  S
C181        C885   1.511       .  S
C182        H189   1.087       .  S
C182        C183   1.364       .  D
C183        C184   1.523       .  S
C183        C925   1.441       .  S
C184        C188   1.553       .  S
C184        C186   1.557       .  S
C184        H190   1.110       .  S
C185        H191   1.086       .  S
C185        C186   1.369       .  D
C186        C969   1.497       .  S
C187        H192   1.088       .  S
C187        C188   1.376       .  D
C188        C626   1.492       .  S
C193        C194   1.538       .  S
C193        C199   1.527       .  S
C193        C197   1.525       .  S
C193        C881   1.497       .  S
C194        H201   1.082       .  S
C194        C195   1.368       .  D
C195        C196   1.565       .  S
C195        C981   1.531       .  S
C196        C200   1.585       .  S
C196        C198   1.536       .  S
C196        H202   1.110       .  S
C197        H203   1.087       .  S
C197        C198   1.359       .  D
C198        C918   1.466       .  S
C199        H204   1.087       .  S
C199        C200   1.363       .  D
C200        C655   1.494       .  S
O205       Zr241   2.472       .  S
O205        C216   1.299       .  A
O206       Zr240   2.407       .  S
O206        C217   1.285   1_455  A
O207       Zr213   2.397       .  S
O207        C218   1.286       .  A
O208       Zr213   2.461       .  S
O208        C219   1.295       .  A
O209       Zr243   2.517   1_655  S
O209        C219   1.307       .  A
O210       Zr242   2.392       .  S
O210        C218   1.283       .  A
O211       Zr213   2.445       .  S
O211        C217   1.294       .  A
O212       Zr213   2.401       .  S
O212        C216   1.284       .  A
Zr213       O214   2.346   1_655  S
Zr213       O215   2.355       .  S
Zr213       O223   2.311       .  S
Zr213       O221   2.334       .  S
O214       Zr240   2.369       .  S
O214       Zr243   2.359       .  S
O215       Zr241   2.323       .  S
O215       Zr242   2.356       .  S
C216        C898   1.473       .  S
C217        C842   1.462       .  S
C218        C870   1.419       .  S
C219        C861   1.512       .  S
H220        O221   0.965       .  S
O221       Zr240   2.308   1_655  S
O221       Zr242   2.348       .  S
H222        O223   0.962       .  S
O223       Zr241   2.309       .  S
O223       Zr243   2.336   1_655  S
O224       Zr240   2.405       .  S
O224        C247   1.286       .  A
O225       Zr241   2.428       .  S
O225        C248   1.289       .  A
O226       Zr242   2.470   1_455  S
O226        C249   1.297       .  A
O227       Zr243   2.441       .  S
O227        C250   1.293       .  A
O228       Zr243   2.400   1_655  S
O228        C251   1.284       .  A
O229       Zr242   2.450       .  S
O229        C252   1.293       .  A
O230       Zr244   2.434       .  S
O230        C253   1.290       .  A
O231       Zr244   2.407       .  S
O231        C254   1.285       .  A
O232       Zr242   2.477   1_455  S
O232        C253   1.298       .  A
O233       Zr243   2.458       .  S
O233        C254   1.296       .  A
O234       Zr240   2.474       .  S
O234        C249   1.298       .  A
O235       Zr241   2.402       .  S
O235        C252   1.286       .  A
O236       Zr241   2.409       .  S
O236        C251   1.288       .  A
O237       Zr240   2.452       .  S
O237        C250   1.295       .  A
O238       Zr244   2.433       .  S
O238        C247   1.290       .  A
O239       Zr244   2.424       .  S
O239        C248   1.290   1_455  A
Zr240       O246   2.362       .  S
Zr240       O258   2.326       .  S
Zr241       O245   2.347       .  S
Zr241       O256   2.319       .  S
Zr242       O246   2.345   1_655  S
Zr242       O256   2.315       .  S
Zr243       O245   2.357   1_455  S
Zr243       O258   2.338       .  S
Zr244       O245   2.347   1_455  S
Zr244       O246   2.349       .  S
Zr244       O258   2.321       .  S
Zr244       O256   2.307   1_455  S
C247        C882   1.448       .  S
C248        C845   1.463       .  S
C249        C865   1.491       .  S
C250        C849   1.471       .  S
C251        C857   1.430       .  S
C252        C874   1.455       .  S
C253        C877   1.483       .  S
C254        C854   1.461       .  S
H255        O256   0.962       .  S
H257        O258   0.963       .  S
O259       Zr295   2.435       .  S
O259        C270   1.290       .  A
O260       Zr294   2.435       .  S
O260        C271   1.292   1_455  A
O261       Zr267   2.454       .  S
O261        C272   1.294       .  A
O262       Zr267   2.445       .  S
O262        C273   1.293       .  A
O263       Zr297   2.458       .  S
O263        C273   1.295       .  A
O264       Zr296   2.518       .  S
O264        C272   1.306       .  A
O265       Zr267   2.411       .  S
O265        C271   1.285       .  A
O266       Zr267   2.403       .  S
O266        C270   1.285       .  A
Zr267       O268   2.367       .  S
Zr267       O269   2.357       .  S
Zr267       O277   2.324       .  S
Zr267       O275   2.316       .  S
O268       Zr294   2.352   1_655  S
O268       Zr297   2.360       .  S
O269       Zr295   2.347       .  S
O269       Zr296   2.343       .  S
C270        C953   1.450       .  S
C271        C806   1.459       .  S
C272        C829   1.508       .  S
C273        C813   1.475       .  S
H274        O275   0.964       .  S
O275       Zr294   2.346   1_655  S
O275       Zr296   2.351       .  S
H276        O277   0.963       .  S
O277       Zr295   2.326       .  S
O277       Zr297   2.337       .  S
O278       Zr294   2.411       .  S
O278        C301   1.285       .  A
O279       Zr295   2.427       .  S
O279        C302   1.291       .  A
O280       Zr296   2.398   1_455  S
O280        C303   1.288       .  A
O281       Zr297   2.524   1_455  S
O281        C304   1.308       .  A
O282       Zr297   2.474       .  S
O282        C305   1.299       .  A
O283       Zr296   2.472       .  S
O283        C306   1.297       .  A
O284       Zr298   2.433       .  S
O284        C307   1.291       .  A
O285       Zr298   2.432       .  S
O285        C308   1.291       .  A
O286       Zr296   2.481   1_455  S
O286        C307   1.300       .  A
O287       Zr297   2.407   1_455  S
O287        C308   1.286       .  A
O288       Zr294   2.393       .  S
O288        C303   1.283       .  A
O289       Zr295   2.444       .  S
O289        C306   1.292       .  A
O290       Zr295   2.419       .  S
O290        C305   1.288       .  A
O291       Zr294   2.465       .  S
O291        C304   1.295       .  A
O292       Zr298   2.461       .  S
O292        C301   1.297       .  A
O293       Zr298   2.415       .  S
O293        C302   1.286   1_455  A
Zr294       O300   2.360       .  S
Zr294       O312   2.308       .  S
Zr295       O299   2.345       .  S
Zr295       O310   2.311       .  S
Zr296       O300   2.367   1_655  S
Zr296       O310   2.332       .  S
Zr297       O299   2.361       .  S
Zr297       O312   2.344   1_655  S
Zr298       O299   2.348   1_455  S
Zr298       O300   2.329       .  S
Zr298       O312   2.319       .  S
Zr298       O310   2.332   1_455  S
C301        C886   1.474       .  S
C302        C801   1.460       .  S
C303        C825   1.428       .  S
C304        C817   1.517       .  S
C305        C809   1.473       .  S
C306        C833   1.480       .  S
C307        C838   1.482       .  S
C308        C821   1.441       .  S
H309        O310   0.964       .  S
H311        O312   0.962       .  S
C313        C314   1.530       .  S
C313        C319   1.508       .  S
C313        C317   1.514       .  S
C313        C797   1.486       .  S
C314        H321   1.086       .  S
C314        C315   1.366       .  D
C315        C316   1.554       .  S
C315        C814   1.504       .  S
C316        C320   1.565       .  S
C316        C318   1.536       .  S
C316        H322   1.109       .  S
C317        H323   1.086       .  S
C317        C318   1.362       .  D
C318        C858   1.451       .  S
C319        H324   1.088       .  S
C319        C320   1.370       .  D
C320        C659   1.492       .  S
C325        C326   1.533       .  S
C325        C331   1.536       .  S
C325        C329   1.536       .  S
C325        C793   1.515       .  S
C326        H333   1.084       .  S
C326        C327   1.373       .  D
C327        C328   1.536       .  S
C327        C853   1.481       .  S
C328        C332   1.589       .  S
C328        C330   1.564       .  S
C328        H334   1.109       .  S
C329        H335   1.087       .  S
C329        C330   1.357       .  D
C330        C818   1.519       .  S
C331        H336   1.087       .  S
C331        C332   1.368       .  D
C332        C661   1.512       .  S
C337        C338   1.512       .  S
C337        C343   1.510       .  S
C337        C341   1.527   1_565  S
C337        C914   1.490       .  S
C338        H345   1.088       .  S
C338        C339   1.360       .  D
C339        C340   1.534       .  S
C339        C869   1.441       .  S
C340        C344   1.548       .  S
C340        C342   1.560   1_565  S
C340        H346   1.111       .  S
C341        H347   1.086       .  S
C341        C342   1.365       .  D
C342        C834   1.499       .  S
C343        H348   1.087   1_565  S
C343        C344   1.376       .  D
C344        C710   1.485       .  S
C349        C350   1.545   1_565  S
C349        C355   1.530       .  S
C349        C353   1.525       .  S
C349        C965   1.510       .  S
C350        H357   1.083       .  S
C350        C351   1.374       .  D
C351        C352   1.561   1_545  S
C351        C830   1.529       .  S
C352        C356   1.575       .  S
C352        C354   1.539       .  S
C352        H358   1.111       .  S
C353        H359   1.087       .  S
C353        C354   1.361       .  D
C354        C873   1.464       .  S
C355        H360   1.087       .  S
C355        C356   1.362       .  D
C356        C711   1.496       .  S
C361        C362   1.535       .  S
C361        C367   1.536       .  S
C361        C365   1.537       .  S
C361        C789   1.519       .  S
C362        H369   1.087       .  S
C362        C363   1.357       .  D
C363        C364   1.562       .  S
C363        C862   1.514       .  S
C364        C368   1.588       .  S
C364        C366   1.542       .  S
C364        H370   1.109       .  S
C365        H371   1.084       .  S
C365        C366   1.374       .  D
C366        C810   1.489       .  S
C367        H372   1.087       .  S
C367        C368   1.368       .  D
C368        C627   1.512       .  S
C373        C374   1.520       .  S
C373        C379   1.507       .  S
C373        C377   1.525       .  S
C373        C785   1.488       .  S
C374        H381   1.085       .  S
C374        C375   1.364       .  D
C375        C376   1.539       .  S
C375        C822   1.462       .  S
C376        C380   1.566       .  S
C376        C378   1.555       .  S
C376        H382   1.109       .  S
C377        H383   1.084       .  S
C377        C378   1.365       .  D
C378        C850   1.503       .  S
C379        H384   1.088       .  S
C379        C380   1.370       .  D
C380        C657   1.493       .  S
C385        C386   1.542       .  S
C385        C391   1.537       .  S
C385        C389   1.525   1_545  S
C385        C909   1.516       .  S
C386        H393   1.086       .  S
C386        C387   1.367       .  D
C387        C388   1.541       .  S
C387        C837   1.483       .  S
C388        C392   1.580       .  S
C388        C390   1.562   1_545  S
C388        H394   1.111       .  S
C389        H395   1.088       .  S
C389        C390   1.360       .  D
C390        C866   1.506       .  S
C391        H396   1.087       .  S
C391        C392   1.369       .  D
C392        C713   1.499       .  S
C397        C398   1.532   1_545  S
C397        C403   1.506       .  S
C397        C401   1.509       .  S
C397        C961   1.485       .  S
C398        H405   1.087       .  S
C398        C399   1.364       .  D
C399        C400   1.552   1_565  S
C399        C878   1.488       .  S
C400        C404   1.558       .  S
C400        C402   1.535       .  S
C400        H406   1.111       .  S
C401        H407   1.085       .  S
C401        C402   1.362       .  D
C402        C826   1.445       .  S
C403        H408   1.088       .  S
C403        C404   1.372       .  D
C404        C679   1.490       .  S
O409       Zr445   2.437       .  S
O409        C420   1.292   1_556  A
O410       Zr444   2.425       .  S
O410        C421   1.288       .  A
O411       Zr417   2.429       .  S
O411        C422   1.290       .  A
O412       Zr417   2.404       .  S
O412        C423   1.287       .  A
O413       Zr447   2.410   1_554  S
O413        C423   1.285       .  A
O414       Zr446   2.451   1_554  S
O414        C422   1.294       .  A
O415       Zr417   2.465       .  S
O415        C421   1.298       .  A
O416       Zr417   2.441       .  S
O416        C420   1.291       .  A
Zr417       O418   2.335       .  S
Zr417       O419   2.343   1_554  S
Zr417       O427   2.339   1_554  S
Zr417       O425   2.304       .  S
O418       Zr444   2.348       .  S
O418       Zr447   2.364   1_554  S
O419       Zr445   2.344       .  S
O419       Zr446   2.345       .  S
C420        C902   1.475       .  S
C421        C790   1.484       .  S
C422        C758   1.466       .  S
C423        C781   1.433       .  S
H424        O425   0.962       .  S
O425       Zr444   2.315       .  S
O425       Zr446   2.340   1_554  S
H426        O427   0.965       .  S
O427       Zr445   2.315       .  S
O427       Zr447   2.336       .  S
O428       Zr444   2.419       .  S
O428        C451   1.288   1_554  A
O429       Zr445   2.426       .  S
O429        C452   1.289       .  A
O430       Zr446   2.430   1_554  S
O430        C453   1.289       .  A
O431       Zr447   2.408   1_554  S
O431        C454   1.286       .  A
O432       Zr447   2.499       .  S
O432        C455   1.303       .  A
O433       Zr446   2.409       .  S
O433        C456   1.288       .  A
O434       Zr448   2.485       .  S
O434        C457   1.300       .  A
O435       Zr448   2.479       .  S
O435        C458   1.300       .  A
O436       Zr446   2.484       .  S
O436        C457   1.301       .  A
O437       Zr447   2.453       .  S
O437        C458   1.295       .  A
O438       Zr444   2.459       .  S
O438        C453   1.296       .  A
O439       Zr445   2.415       .  S
O439        C456   1.286       .  A
O440       Zr445   2.473       .  S
O440        C455   1.296       .  A
O441       Zr444   2.450       .  S
O441        C454   1.296       .  A
O442       Zr448   2.429       .  S
O442        C451   1.289       .  A
O443       Zr448   2.402       .  S
O443        C452   1.288       .  A
Zr444       O450   2.353   1_554  S
Zr444       O462   2.319   1_554  S
Zr445       O449   2.365       .  S
Zr445       O460   2.351       .  S
Zr446       O450   2.345       .  S
Zr446       O460   2.333       .  S
Zr447       O449   2.337       .  S
Zr447       O462   2.342       .  S
Zr448       O449   2.375       .  S
Zr448       O450   2.358       .  S
Zr448       O462   2.314       .  S
Zr448       O460   2.328       .  S
C451        C889   1.450       .  S
C452        C798   1.459       .  S
C453        C754   1.462       .  S
C454        C770   1.463       .  S
C455        C777   1.511       .  S
C456        C762   1.440       .  S
C457        C765   1.515       .  S
C458        C773   1.491       .  S
H459        O460   0.964       .  S
H461        O462   0.965       .  S
O463       Zr499   2.437       .  S
O463        C474   1.291       .  A
O464       Zr498   2.456       .  S
O464        C475   1.296       .  A
O465       Zr471   2.453       .  S
O465        C476   1.294       .  A
O466       Zr471   2.445       .  S
O466        C477   1.296       .  A
O467       Zr501   2.415   1_556  S
O467        C477   1.287       .  A
O468       Zr500   2.460   1_556  S
O468        C476   1.295       .  A
O469       Zr471   2.432       .  S
O469        C475   1.289       .  A
O470       Zr471   2.418       .  S
O470        C474   1.288   1_556  A
Zr471       O472   2.352       .  S
Zr471       O473   2.357   1_556  S
Zr471       O481   2.318   1_556  S
Zr471       O479   2.312       .  S
O472       Zr498   2.340       .  S
O472       Zr501   2.372   1_556  S
O473       Zr499   2.366       .  S
O473       Zr500   2.346       .  S
C474        C905   1.454       .  S
C475        C794   1.483       .  S
C476        C741   1.475       .  S
C477        C734   1.464       .  S
H478        O479   0.962       .  S
O479       Zr498   2.311       .  S
O479       Zr500   2.339   1_556  S
H480        O481   0.962       .  S
O481       Zr499   2.309       .  S
O481       Zr501   2.338       .  S
O482       Zr498   2.436       .  S
O482        C505   1.290       .  A
O483       Zr499   2.415       .  S
O483        C506   1.291       .  A
O484       Zr500   2.440   1_556  S
O484        C507   1.291       .  A
O485       Zr501   2.397   1_556  S
O485        C508   1.283       .  A
O486       Zr501   2.447       .  S
O486        C509   1.293       .  A
O487       Zr500   2.484       .  S
O487        C510   1.301       .  A
O488       Zr502   2.428       .  S
O488        C511   1.289       .  A
O489       Zr502   2.478       .  S
O489        C512   1.297       .  A
O490       Zr500   2.422       .  S
O490        C511   1.291       .  A
O491       Zr501   2.507       .  S
O491        C512   1.304       .  A
O492       Zr498   2.427       .  S
O492        C507   1.290       .  A
O493       Zr499   2.492       .  S
O493        C510   1.302       .  A
O494       Zr499   2.493       .  S
O494        C509   1.303       .  A
O495       Zr498   2.415       .  S
O495        C508   1.289       .  A
O496       Zr502   2.431       .  S
O496        C505   1.292   1_554  A
O497       Zr502   2.416       .  S
O497        C506   1.287       .  A
Zr498       O504   2.346   1_556  S
Zr498       O516   2.341   1_556  S
Zr499       O503   2.377       .  S
Zr499       O514   2.323       .  S
Zr500       O504   2.351       .  S
Zr500       O514   2.332       .  S
Zr501       O503   2.339       .  S
Zr501       O516   2.338       .  S
Zr502       O503   2.366       .  S
Zr502       O504   2.345       .  S
Zr502       O516   2.314       .  S
Zr502       O514   2.347       .  S
C505        C894   1.475       .  S
C506        C786   1.459       .  S
C507        C737   1.458       .  S
C508        C722   1.432       .  S
C509        C730   1.495       .  S
C510        C746   1.515       .  S
C511        C750   1.455       .  S
C512        C725   1.516       .  S
H513        O514   0.963       .  S
H515        O516   0.965   1_556  S
C517        C518   1.523       .  S
C517        C523   1.533       .  S
C517        C521   1.539   1_455  S
C517        C846   1.499       .  S
C518        H525   1.087       .  S
C518        C519   1.360       .  D
C519        C520   1.543       .  S
C519        C733   1.457       .  S
C520        C524   1.570       .  S
C520        C522   1.570   1_455  S
C520        H526   1.110       .  S
C521        H527   1.087       .  S
C521        C522   1.359       .  D
C522        C778   1.520       .  S
C523        H528   1.087       .  S
C523        C524   1.363       .  D
C524        C680   1.490       .  S
C529        C530   1.536   1_455  S
C529        C535   1.514       .  S
C529        C533   1.512       .  S
C529        C805   1.502       .  S
C530        H537   1.083       .  S
C530        C531   1.365       .  D
C531        C532   1.564       .  S
C531        C774   1.510       .  S
C532        C536   1.572   1_655  S
C532        C534   1.538   1_655  S
C532        H538   1.111       .  S
C533        H539   1.087       .  S
C533        C534   1.364       .  D
C534        C721   1.457       .  S
C535        H540   1.087       .  S
C535        C536   1.371       .  D
C536        C712   1.507       .  S
C541        C542   1.524       .  S
C541        C547   1.499       .  S
C541        C545   1.520       .  S
C541        C990   1.496       .  S
C542        H549   1.087       .  S
C542        C543   1.366       .  D
C543        C544   1.558       .  S
C543        C742   1.499       .  S
C544        C548   1.564       .  S
C544        C546   1.542       .  S
C544        H550   1.111       .  S
C545        H551   1.083       .  S
C545        C546   1.367       .  D
C546        C761   1.464       .  S
C547        H552   1.088       .  S
C547        C548   1.373       .  D
C548        C656   1.502       .  S
C553        C554   1.528       .  S
C553        C559   1.538       .  S
C553        C557   1.548       .  S
C553        C934   1.523       .  S
C554        H561   1.087       .  S
C554        C555   1.364       .  D
C555        C556   1.543       .  S
C555        C757   1.476       .  S
C556        C560   1.575       .  S
C556        C558   1.562       .  S
C556        H562   1.110       .  S
C557        H563   1.082       .  S
C557        C558   1.360       .  D
C558        C745   1.515       .  S
C559        H564   1.087       .  S
C559        C560   1.367       .  D
C560        C658   1.498       .  S
C565        C566   1.540   1_655  S
C565        C571   1.529       .  S
C565        C569   1.524       .  S
C565        C802   1.494       .  S
C566        H573   1.086       .  S
C566        C567   1.364       .  D
C567        C568   1.574   1_455  S
C567        C726   1.530       .  S
C568        C572   1.574       .  S
C568        C570   1.542       .  S
C568        H574   1.110       .  S
C569        H575   1.087       .  S
C569        C570   1.358       .  D
C570        C769   1.457       .  S
C571        H576   1.087       .  S
C571        C572   1.359       .  D
C572        C716   1.489       .  S
C577        C578   1.515       .  S
C577        C583   1.514       .  S
C577        C581   1.535   1_655  S
C577        C841   1.505       .  S
C578        H585   1.087       .  S
C578        C579   1.365       .  D
C579        C580   1.534       .  S
C579        C782   1.457       .  S
C580        C584   1.574       .  S
C580        C582   1.568   1_655  S
C580        H586   1.110       .  S
C581        H587   1.083       .  S
C581        C582   1.367       .  D
C582        C729   1.517       .  S
C583        H588   1.087       .  S
C583        C584   1.372       .  D
C584        C714   1.512       .  S
C589        C590   1.542       .  S
C589        C595   1.534       .  S
C589        C593   1.523       .  S
C589        C985   1.505       .  S
C590        H597   1.087       .  S
C590        C591   1.363       .  D
C591        C592   1.563       .  S
C591        C766   1.514       .  S
C592        C596   1.577       .  S
C592        C594   1.539       .  S
C592        H598   1.111       .  S
C593        H599   1.087       .  S
C593        C594   1.361       .  D
C594        C738   1.469       .  S
C595        H600   1.087       .  S
C595        C596   1.364       .  D
C596        C660   1.491       .  S
C601        C602   1.532       .  S
C601        C607   1.508       .  S
C601        C605   1.516       .  S
C601        C930   1.501       .  S
C602        H609   1.085       .  S
C602        C603   1.366       .  D
C603        C604   1.540       .  S
C603        C749   1.469       .  S
C604        C608   1.563       .  S
C604        C606   1.557       .  S
C604        H610   1.110       .  S
C605        H611   1.088       .  S
C605        C606   1.365       .  D
C606        C753   1.488       .  S
C607        H612   1.087       .  S
C607        C608   1.375       .  D
C608        C625   1.506       .  S
O613       Zr649   2.588       .  S
O613        C624   1.323       .  A
O614       Zr648   2.545       .  S
O614        C625   1.309       .  A
O615       Zr621   2.560       .  S
O615        C626   1.314       .  A
O616       Zr621   2.615       .  S
O616        C627   1.328       .  A
O617       Zr651   2.354       .  S
O617        C627   1.273       .  A
O618       Zr650   2.328       .  S
O618        C626   1.272       .  A
O619       Zr621   2.349       .  S
O619        C625   1.278       .  A
O620       Zr621   2.346       .  S
O620        C624   1.274       .  A
Zr621       O622   2.337       .  S
Zr621       O623   2.347       .  S
Zr621       O631   2.319       .  S
Zr621       O629   2.369       .  S
O622       Zr648   2.353       .  S
O622       Zr651   2.321       .  S
O623       Zr649   2.324       .  S
O623       Zr650   2.333       .  S
H628        O629   0.970       .  S
O629       Zr648   2.373       .  S
O629       Zr650   2.369       .  S
H630        O631   0.965       .  S
O631       Zr649   2.336       .  S
O631       Zr651   2.352       .  S
O632       Zr648   2.593       .  S
O632        C655   1.323       .  A
O633       Zr649   2.545       .  S
O633        C656   1.308       .  A
O634       Zr650   2.530       .  S
O634        C657   1.307       .  A
O635       Zr651   2.583       .  S
O635        C658   1.321       .  A
O636       Zr651   2.534       .  S
O636        C659   1.307       .  A
O637       Zr650   2.584       .  S
O637        C660   1.321       .  A
O638       Zr652   2.616       .  S
O638        C661   1.328       .  A
O639       Zr652   2.563       .  S
O639        C662   1.315       .  A
O640       Zr650   2.342       .  S
O640        C661   1.271       .  A
O641       Zr651   2.351       .  S
O641        C662   1.277       .  A
O642       Zr648   2.357       .  S
O642        C657   1.280       .  A
O643       Zr649   2.341       .  S
O643        C660   1.271       .  A
O644       Zr649   2.359       .  S
O644        C659   1.280       .  A
O645       Zr648   2.350       .  S
O645        C658   1.273       .  A
O646       Zr652   2.336       .  S
O646        C655   1.272       .  A
O647       Zr652   2.343       .  S
O647        C656   1.277       .  A
Zr648       O654   2.334       .  S
Zr648       O666   2.318       .  S
Zr649       O653   2.368       .  S
Zr649       O664   2.353       .  S
Zr650       O654   2.344       .  S
Zr650       O664   2.311       .  S
Zr651       O653   2.371       .  S
Zr651       O666   2.339       .  S
Zr652       O653   2.369       .  S
Zr652       O654   2.317       .  S
Zr652       O666   2.354       .  S
Zr652       O664   2.332       .  S
H663        O664   0.964       .  S
H665        O666   0.966       .  S
O667       Zr703   2.583       .  S
O667        C678   1.321       .  A
O668       Zr702   2.534   1_455  S
O668        C679   1.307       .  A
O669       Zr675   2.583       .  S
O669        C680   1.321       .  A
O670       Zr675   2.548   1_545  S
O670        C681   1.310       .  A
O671       Zr705   2.340       .  S
O671        C681   1.275   1_554  A
O672       Zr704   2.338       .  S
O672        C680   1.271   1_655  A
O673       Zr675   2.337   1_545  S
O673        C679   1.276       .  A
O674       Zr675   2.338       .  S
O674        C678   1.272   1_556  A
Zr675       O676   2.362   1_565  S
Zr675       O677   2.323   1_556  S
Zr675       O685   2.341   1_566  S
Zr675       O683   2.334   1_455  S
O676       Zr702   2.371   1_455  S
O676       Zr705   2.361   1_556  S
O677       Zr703   2.325       .  S
O677       Zr704   2.337   1_454  S
H682        O683   0.964       .  S
O683       Zr702   2.359   1_565  S
O683       Zr704   2.325       .  S
H684        O685   0.966       .  S
O685       Zr703   2.324   1_545  S
O685       Zr705   2.334       .  S
O686       Zr702   2.583       .  S
O686        C709   1.322       .  A
O687       Zr703   2.533   1_655  S
O687        C710   1.308       .  A
O688       Zr704   2.576       .  S
O688        C711   1.320       .  A
O689       Zr705   2.565   1_556  S
O689        C712   1.315       .  A
O690       Zr705   2.604       .  S
O690        C713   1.325       .  A
O691       Zr704   2.572   1_554  S
O691        C714   1.316       .  A
O692       Zr706   2.552   1_565  S
O692        C715   1.311       .  A
O693       Zr706   2.602       .  S
O693        C716   1.325       .  A
O694       Zr704   2.336       .  S
O694        C715   1.274   1_556  A
O695       Zr705   2.322       .  S
O695        C716   1.268   1_455  A
O696       Zr702   2.367       .  S
O696        C711   1.277   1_545  A
O697       Zr703   2.361   1_655  S
O697        C714   1.278       .  A
O698       Zr703   2.328       .  S
O698        C713   1.270   1_565  A
O699       Zr702   2.379       .  S
O699        C712   1.282   1_655  A
O700       Zr706   2.342       .  S
O700        C709   1.272   1_554  A
O701       Zr706   2.336       .  S
O701        C710   1.275   1_545  A
Zr702       O708   2.324       .  S
Zr702       O720   2.337       .  S
Zr703       O707   2.352   1_465  S
Zr703       O718   2.361   1_455  S
Zr704       O708   2.343   1_565  S
Zr704       O718   2.361   1_556  S
Zr705       O707   2.325   1_455  S
Zr705       O720   2.354   1_454  S
Zr706       O707   2.334       .  S
Zr706       O708   2.343   1_554  S
Zr706       O720   2.320   1_554  S
Zr706       O718   2.375   1_545  S
H717        O718   0.967       .  S
H719        O720   0.963       .  S
C721        H723   1.087       .  S
C721        C722   1.344       .  D
C722        H724   1.087       .  S
C725        H727   1.085       .  S
C725        C726   1.375       .  D
C726        H728   1.085       .  S
C729        H731   1.086       .  S
C729        C730   1.368       .  D
C730        H732   1.082       .  S
C733        H735   1.087       .  S
C733        C734   1.334       .  D
C734        H736   1.088       .  S
C737        H739   1.087       .  S
C737        C738   1.343       .  D
C738        H740   1.087       .  S
C741        H743   1.086       .  S
C741        C742   1.360       .  D
C742        H744   1.086       .  S
C745        H747   1.086       .  S
C745        C746   1.361       .  D
C746        H748   1.086       .  S
C749        H751   1.088       .  S
C749        C750   1.344       .  D
C750        H752   1.084       .  S
C753        H755   1.085       .  S
C753        C754   1.358       .  D
C754        H756   1.086       .  S
C757        H759   1.086       .  S
C757        C758   1.345       .  D
C758        H760   1.087       .  S
C761        H763   1.088       .  S
C761        C762   1.343       .  D
C762        H764   1.082       .  S
C765        H767   1.087       .  S
C765        C766   1.361       .  D
C766        H768   1.086       .  S
C769        H771   1.086       .  S
C769        C770   1.333       .  D
C770        H772   1.089       .  S
C773        H775   1.083       .  S
C773        C774   1.365       .  D
C774        H776   1.086       .  S
C777        H779   1.086       .  S
C777        C778   1.370       .  D
C778        H780   1.085       .  S
C781        H783   1.087       .  S
C781        C782   1.344       .  D
C782        H784   1.088       .  S
C785        H787   1.087       .  S
C785        C786   1.337       .  D
C786        H788   1.087       .  S
C789        H791   1.087       .  S
C789        C790   1.341       .  D
C790        H792   1.087       .  S
C793        H795   1.087       .  S
C793        C794   1.340       .  D
C794        H796   1.087       .  S
C797        H799   1.087       .  S
C797        C798   1.341       .  D
C798        H800   1.087       .  S
C801        H803   1.087   1_655  S
C801        C802   1.338       .  D
C802        H804   1.088       .  S
C805        H807   1.087       .  S
C805        C806   1.335   1_455  D
C806        H808   1.088       .  S
C809        H811   1.084       .  S
C809        C810   1.343       .  D
C810        H812   1.085       .  S
C813        H815   1.083       .  S
C813        C814   1.360       .  D
C814        H816   1.084       .  S
C817        H819   1.086       .  S
C817        C818   1.373       .  D
C818        H820   1.086       .  S
C821        H823   1.085       .  S
C821        C822   1.340       .  D
C822        H824   1.088       .  S
C825        H827   1.085       .  S
C825        C826   1.335       .  D
C826        H828   1.088       .  S
C829        H831   1.082       .  S
C829        C830   1.367       .  D
C830        H832   1.086       .  S
C833        H835   1.086       .  S
C833        C834   1.358       .  D
C834        H836   1.086       .  S
C837        H839   1.087       .  S
C837        C838   1.351       .  D
C838        H840   1.086       .  S
C841        H843   1.087       .  S
C841        C842   1.336       .  D
C842        H844   1.088   1_655  S
C845        H847   1.087       .  S
C845        C846   1.340   1_655  D
C846        H848   1.087       .  S
C849        H851   1.080       .  S
C849        C850   1.359       .  D
C850        H852   1.083       .  S
C853        H855   1.084       .  S
C853        C854   1.338       .  D
C854        H856   1.083       .  S
C857        H859   1.086       .  S
C857        C858   1.338       .  D
C858        H860   1.088       .  S
C861        H863   1.086       .  S
C861        C862   1.370       .  D
C862        H864   1.086       .  S
C865        H867   1.086       .  S
C865        C866   1.362       .  D
C866        H868   1.085       .  S
C869        H871   1.088       .  S
C869        C870   1.338       .  D
C870        H872   1.088       .  S
C873        H875   1.087       .  S
C873        C874   1.346       .  D
C874        H876   1.087       .  S
C877        H879   1.086       .  S
C877        C878   1.357       .  D
C878        H880   1.086       .  S
C881        H883   1.088       .  S
C881        C882   1.343       .  D
C882        H884   1.086       .  S
C885        H887   1.087       .  S
C885        C886   1.339       .  D
C886        H888   1.087       .  S
C889        H891   1.086       .  S
C889        C890   1.339       .  D
C890        H892   1.088       .  S
C893        H895   1.087       .  S
C893        C894   1.343   1_554  D
C894        H896   1.087       .  S
C897        H899   1.087       .  S
C897        C898   1.339       .  D
C898        H900   1.087       .  S
C901        H903   1.087       .  S
C901        C902   1.347   1_556  D
C902        H904   1.087       .  S
C905        H907   1.086       .  S
C905        C906   1.340       .  D
C906        H908   1.088       .  S
C909        H911   1.087   1_545  S
C909        C910   1.330       .  D
C910        H912   1.089       .  S
C913        H915   1.087       .  S
C913        C914   1.336   1_545  D
C914        H916   1.088       .  S
C917        H919   1.087       .  S
C917        C918   1.344       .  D
C918        H920   1.087       .  S
C921        H923   1.086       .  S
C921        C922   1.361       .  D
C922        H924   1.086       .  S
C925        H927   1.088       .  S
C925        C926   1.330       .  D
C926        H928   1.086       .  S
C929        H931   1.089       .  S
C929        C930   1.329       .  D
C930        H932   1.087       .  S
C933        H935   1.080       .  S
C933        C934   1.349       .  D
C934        H936   1.087       .  S
C937        H939   1.083       .  S
C937        C938   1.367       .  D
C938        H940   1.086       .  S
C941        H943   1.086       .  S
C941        C942   1.333       .  D
C942        H944   1.086       .  S
C945        H947   1.087       .  S
C945        C946   1.347       .  D
C946        H948   1.087       .  S
C949        H951   1.086       .  S
C949        C950   1.356       .  D
C950        H952   1.086       .  S
C953        H955   1.086       .  S
C953        C954   1.344       .  D
C954        H956   1.088       .  S
C957        H959   1.083       .  S
C957        C958   1.369       .  D
C958        H960   1.085       .  S
C961        H963   1.089       .  S
C961        C962   1.330   1_545  D
C962        H964   1.087       .  S
C965        H967   1.088       .  S
C965        C966   1.342   1_565  D
C966        H968   1.087       .  S
C969        H971   1.086       .  S
C969        C970   1.362       .  D
C970        H972   1.086       .  S
C973        H975   1.087       .  S
C973        C974   1.348       .  D
C974        H976   1.087       .  S
C977        H979   1.086       .  S
C977        C978   1.331       .  D
C978        H980   1.087       .  S
C981        H983   1.085       .  S
C981        C982   1.368       .  D
C982        H984   1.081       .  S
C985        H987   1.088       .  S
C985        C986   1.338       .  D
C986        H988   1.087       .  S
C989        H991   1.086       .  S
C989        C990   1.333       .  D
C990        H992   1.089       .  S
C993        H995   1.086       .  S
C993        C994   1.333       .  D
C994        H996   1.087       .  S
C997        H999   1.086       .  S
C997        C998   1.362       .  D
C998       H1000   1.084       .  S
C1001      H1003   1.086       .  S
C1001      C1002   1.356       .  D
C1002      H1004   1.086       .  S
C1005      H1007   1.087       .  S
C1005      C1006   1.348       .  D
C1006      H1008   1.087       .  S
