geometry optimzed in LAMMPS
_audit_creation_date              2020-11-30 
_audit_creation_method            'lammps2cif' 
_symmetry_space_group_name_H-M    'P1' 
_symmetry_Int_Tables_number       1 
_symmetry_cell_setting            triclinic 
loop_ 
_symmetry_equiv_pos_as_xyz 
  x,y,z 
_cell_length_a                    26.71481521 
_cell_length_b                    26.61566003206437 
_cell_length_c                    26.741826797294994 
_cell_angle_alpha                 85.89257786549771 
_cell_angle_beta                  86.24633913111641 
_cell_angle_gamma                 93.72214123844529 
loop_ 
_atom_site_label 
_atom_site_type_symbol 
_atom_site_fract_x 
_atom_site_fract_y 
_atom_site_fract_z 
_atom_site_charge 
O1          O  0.56888743  0.06752574  0.87646801    -0.79500
O2          O  0.52237800  0.07436760  0.59752226    -0.81100
O3          O  0.64728507  0.06057655  0.72158066    -0.78100
O4          O  0.52564632  0.16807371  0.74149913    -0.76500
O5          O  0.43992452  0.15684321  0.75318737    -0.78300
O6          O  0.64623061  0.97441486  0.73546690    -0.79200
O7          O  0.56515501  0.12607671  0.64740831    -0.80500
O8          O  0.60032914  0.11540433  0.80506019    -0.80800
Eu9        Eu  0.55938785  0.08406601  0.73337678     2.39200
O10         O  0.48344361  0.07343711  0.69629183    -0.88300
O11         O  0.56247282  0.01293573  0.78978300    -0.91900
C12         C  0.59931658  0.10213512  0.85240097     1.02700
C13         C  0.54805706  0.11616195  0.60479379     1.02600
C14         C  0.66887436  0.01861056  0.72716764     1.02500
C15         C  0.48135443  0.18462930  0.74822408     1.00400
H16         H  0.58610025  0.01095417  0.66328862     0.30100
O17         O  0.55871172  0.00957737  0.68887279    -1.00700
H18         H  0.49527860  0.10618200  0.81645888     0.30100
O19         O  0.49443042  0.07619617  0.79818741    -1.03300
O20         O  0.42440431  0.92841703  0.63219940    -0.80500
O21         O  0.43260689  0.95929709  0.91442182    -0.80000
O22         O  0.57478941  0.90093810  0.66809919    -0.78500
O23         O  0.38856577  0.09655478  0.67982212    -0.81800
O24         O  0.39355083  0.08952332  0.84217972    -0.79700
O25         O  0.60457107  0.91868171  0.82305760    -0.78300
O26         O  0.44853572  0.84075263  0.78409462    -0.79800
O27         O  0.32994342  0.94445208  0.77694297    -0.81800
O28         O  0.53183395  0.85018713  0.75629318    -0.78500
O29         O  0.33098026  0.03049648  0.76587214    -0.81200
O30         O  0.53049106  0.94074986  0.60837264    -0.76900
O31         O  0.57107839  0.95873943  0.88915399    -0.76900
O32         O  0.44740642  0.06290526  0.90012999    -0.76600
O33         O  0.41661204  0.04892405  0.61698306    -0.80100
O34         O  0.38684169  0.88692224  0.70475791    -0.79500
O35         O  0.37929280  0.91887350  0.86438457    -0.77800
Eu36       Eu  0.48091418  0.00030465  0.65258844     2.39800
Eu37       Eu  0.50104715  0.00624590  0.85672872     2.39600
Eu38       Eu  0.56015062  0.93906848  0.74840249     2.38400
Eu39       Eu  0.41825777  0.06653719  0.75917737     2.39900
Eu40       Eu  0.41835278  0.92561736  0.77720046     2.39800
O41         O  0.42492113  0.99922177  0.81804955    -0.92300
O42         O  0.48357276  0.93314044  0.71345277    -0.91100
C43         C  0.39516071  0.89302490  0.65672010     1.02900
C44         C  0.39036716  0.93461406  0.90721562     1.01600
C45         C  0.55946027  0.90676676  0.62344207     1.01000
C46         C  0.39203315  0.08460156  0.63412033     1.03000
C47         C  0.40850613  0.08535663  0.88690591     1.02000
C48         C  0.60379431  0.93111983  0.86871007     1.00800
C49         C  0.49087571  0.82351600  0.77046117     1.00900
C50         C  0.30817187  0.98596250  0.77066515     1.03500
H51         H  0.49948926  0.90163679  0.83892542     0.30800
O52         O  0.49614585  0.93045264  0.81552254    -1.04400
H53         H  0.38350042  0.99008472  0.69926977     0.32900
O54         O  0.41441803  0.99343267  0.71584280    -1.07000
C55         C  0.67588001  0.26680655  0.47856639     0.87100
C56         C  0.64680694  0.25181576  0.52949672    -0.53200
C57         C  0.59649825  0.24189720  0.52709412     0.10000
C58         C  0.57917389  0.25477327  0.47351606     0.21000
C59         C  0.65971776  0.22619470  0.44447807    -0.53900
C60         C  0.60890013  0.21950434  0.44181070     0.10100
C61         C  0.65318883  0.31467580  0.45754590    -0.53400
C62         C  0.60219086  0.30969273  0.45452699     0.10700
H63         H  0.66561666  0.24241032  0.56342269     0.15200
H64         H  0.53779274  0.24947241  0.47138884     0.00900
H65         H  0.68675459  0.20326652  0.42667712     0.15500
H66         H  0.67470052  0.35094960  0.45167399     0.15300
O67         O  0.55036582  0.08296260  0.37884793    -0.79500
O68         O  0.55846753  0.04690791  0.09724865    -0.81100
O69         O  0.65298899  0.04906928  0.24414297    -0.78100
O70         O  0.53888201  0.16716145  0.22327867    -0.76500
O71         O  0.45300571  0.16283752  0.23767317    -0.78300
O72         O  0.64405574  0.96289904  0.25449092    -0.79200
O73         O  0.60942526  0.08966050  0.14810406    -0.80500
O74         O  0.59657387  0.11849466  0.30795690    -0.80800
Eu75       Eu  0.56746328  0.08034148  0.23460101     2.39200
O76         O  0.49331699  0.07809060  0.18984332    -0.88300
O77         O  0.56200049  0.01471085  0.29940031    -0.91900
C78         C  0.58404585  0.11482355  0.35537809     1.02700
C79         C  0.59955759  0.07326127  0.10506813     1.02600
C80         C  0.67060777  0.00490864  0.25036407     1.02500
C81         C  0.49613016  0.18716897  0.22887866     1.00400
H82         H  0.58969337  0.00106664  0.17628849     0.30100
O83         O  0.55966334  0.00460748  0.19731955    -1.00700
H84         H  0.49706974  0.11205736  0.30665423     0.30100
O85         O  0.49592045  0.08029066  0.29139530    -1.03300
O86         O  0.42102779  0.94108362  0.12650486    -0.80500
O87         O  0.44041137  0.94580597  0.41037928    -0.80000
O88         O  0.58391614  0.90823072  0.18130234    -0.78500
O89         O  0.38800890  0.09574375  0.16821823    -0.81800
O90         O  0.39661517  0.11428472  0.32584658    -0.79700
O91         O  0.58106579  0.91418048  0.34373464    -0.78300
O92         O  0.44319713  0.84465505  0.26262483    -0.79800
O93         O  0.32841652  0.95981862  0.27784605    -0.81800
O94         O  0.52865080  0.85138443  0.26532909    -0.78500
O95         O  0.33475631  0.04543210  0.25849271    -0.81200
O96         O  0.53723332  0.93739639  0.11762687    -0.76900
O97         O  0.54969990  0.96609555  0.40104352    -0.76900
O98         O  0.43799463  0.08130277  0.39148911    -0.76600
O99         O  0.42546083  0.05056086  0.10829386    -0.80100
O100        O  0.37804455  0.90041062  0.19682493    -0.79500
O101        O  0.39987834  0.89314594  0.35917904    -0.77800
Eu102      Eu  0.48715498  0.00096935  0.15174897     2.39800
Eu103      Eu  0.49013324  0.01554631  0.35633319     2.39600
Eu104      Eu  0.55567555  0.93933334  0.26008370     2.38400
Eu105      Eu  0.42272996  0.07513579  0.24910504     2.39900
Eu106      Eu  0.41427512  0.93090938  0.27164937     2.39800
O107        O  0.41638777  0.00767162  0.31237381    -0.92300
O108        O  0.48445216  0.93293719  0.21395571    -0.91100
C109        C  0.38607568  0.91009571  0.14895160     1.02900
C110        C  0.41439820  0.90438931  0.40253296     1.01600
C111        C  0.57228835  0.91224183  0.13543276     1.01000
C112        C  0.39325495  0.08139683  0.12330909     1.03000
C113        C  0.40767394  0.11224891  0.37207227     1.02000
C114        C  0.57517598  0.92897421  0.38843826     1.00800
C115        C  0.48684967  0.82605249  0.26185049     1.00900
C116        C  0.30957811  0.00282639  0.26919554     1.03500
H117        H  0.48899728  0.91004290  0.33871373     0.30800
O118        O  0.48646785  0.93941013  0.31603466    -1.04400
H119        H  0.38761718  0.99829348  0.19352569     0.32900
O120        O  0.41819281  0.99974682  0.21079658    -1.07000
C121        C  0.23152509  0.82034382  0.02750593     0.87100
C122        C  0.25170729  0.85042454  0.97844400    -0.53200
C123        C  0.26133619  0.90054497  0.98228774     0.10000
C124        C  0.24310780  0.91714257  0.03477005     0.21000
C125        C  0.26768793  0.83514066  0.06668553    -0.53900
C126        C  0.27451612  0.88599139  0.07021411     0.10100
C127        C  0.18236779  0.84329729  0.04338852    -0.53400
C128        C  0.18705228  0.89434442  0.04751667     0.10700
H129        H  0.26406569  0.83234859  0.94503513     0.15200
H130        H  0.24833206  0.95854506  0.03773237     0.00900
H131        H  0.28671354  0.80733293  0.08865348     0.15500
H132        H  0.14610096  0.82193369  0.04567726     0.15300
C133        C  0.72287014  0.82517661  0.01502213     0.87100
C134        C  0.69191703  0.84042779  0.06027525    -0.53200
C135        C  0.68959368  0.89124523  0.06118243     0.10000
C136        C  0.71930326  0.92273779  0.01760924     0.21000
C137        C  0.69970696  0.84999371  0.96970772    -0.53900
C138        C  0.69634088  0.90114200  0.97097885     0.10100
C139        C  0.77375775  0.85280407  0.01740542    -0.53400
C140        C  0.77288243  0.90415611  0.01931997     0.10700
H141        H  0.67122115  0.81352233  0.08786329     0.15200
H142        H  0.71727665  0.96418311  0.01900230     0.00900
H143        H  0.68246684  0.82723122  0.94261613     0.15500
H144        H  0.80794137  0.83276864  0.01801228     0.15300
C145        C  0.66366689  0.77212831  0.52049919     0.87100
C146        C  0.65467732  0.81301590  0.47914052    -0.53200
C147        C  0.60525452  0.81433163  0.46893225     0.10000
C148        C  0.56923953  0.77604233  0.50133327     0.21000
C149        C  0.62969096  0.78300888  0.56563552    -0.53900
C150        C  0.58078821  0.78838670  0.55548599     0.10100
C151        C  0.64040135  0.72379995  0.50260106    -0.53400
C152        C  0.59065259  0.72453438  0.49246087     0.10700
H153        H  0.68453397  0.83763232  0.45904679     0.15200
H154        H  0.52900313  0.77769208  0.49363013     0.00900
H155        H  0.64471425  0.79423860  0.60029639     0.15500
H156        H  0.66206650  0.69080198  0.49969615     0.15300
C157        C  0.25708917  0.18994693  0.00915653     0.87100
C158        C  0.27619255  0.15866317  0.05294787    -0.53200
C159        C  0.28238690  0.10937384  0.04385865     0.10000
C160        C  0.26372834  0.09486083  0.99262077     0.21000
C161        C  0.29280065  0.18199715  0.96388430    -0.53900
C162        C  0.29594827  0.13239096  0.95552633     0.10100
C163        C  0.20786587  0.16290784  0.99879259    -0.53400
C164        C  0.20988127  0.11303739  0.98946273     0.10700
H165        H  0.28879915  0.17547547  0.08618658     0.15200
H166        H  0.26709595  0.05454007  0.98554926     0.00900
H167        H  0.31413766  0.21250759  0.94104688     0.15500
H168        H  0.17353625  0.18273410  0.99896921     0.15300
C169        C  0.74866407  0.19530859  0.98022722     0.87100
C170        C  0.70760561  0.17924810  0.94631670    -0.53200
C171        C  0.70183559  0.12828625  0.94268695     0.10000
C172        C  0.73779851  0.09839926  0.97407851     0.21000
C173        C  0.73507648  0.16518812  0.03091864    -0.53900
C174        C  0.72567941  0.11482385  0.02798420     0.10100
C175        C  0.79634497  0.17333936  0.95838655    -0.53400
C176        C  0.79221161  0.12218560  0.95520876     0.10700
H177        H  0.68404711  0.20612506  0.92878492     0.15200
H178        H  0.73300760  0.05690229  0.97157931     0.00900
H179        H  0.72622134  0.18314678  0.06534666     0.15500
H180        H  0.83222531  0.19539507  0.95266503     0.15300
C181        C  0.30088404  0.23814799  0.51573136     0.87100
C182        C  0.32409753  0.21622529  0.46856258    -0.53200
C183        C  0.37512777  0.21119109  0.46901612     0.10000
C184        C  0.39818927  0.23301989  0.51551550     0.21000
C185        C  0.31702401  0.20470894  0.55934116    -0.53900
C186        C  0.36778805  0.20188119  0.55888517     0.10100
C187        C  0.32944365  0.28842981  0.51939273    -0.53400
C188        C  0.38043721  0.28698534  0.51930478     0.10700
H189        H  0.30065924  0.20174771  0.44055794     0.15200
H190        H  0.43952884  0.23054619  0.51588442     0.00900
H191        H  0.29077832  0.18355645  0.58713246     0.15500
H192        H  0.31018021  0.32302315  0.52200468     0.15300
C193        C  0.30128122  0.74933835  0.52379748     0.87100
C194        C  0.31728090  0.78760387  0.56073246    -0.53200
C195        C  0.36818078  0.79320110  0.56432887     0.10000
C196        C  0.39791836  0.75957263  0.53048030     0.21000
C197        C  0.33112659  0.76690355  0.47397258    -0.53900
C198        C  0.38125105  0.77577923  0.47752678     0.10100
C199        C  0.32353933  0.70018859  0.54209171    -0.53400
C200        C  0.37446374  0.70413266  0.54558740     0.10700
H201        H  0.29055578  0.81005292  0.57975821     0.15200
H202        H  0.43925698  0.76408026  0.53315161     0.00900
H203        H  0.31334968  0.77836380  0.43998422     0.15500
H204        H  0.30174931  0.66401757  0.54559281     0.15300
O205        O  0.82359919  0.74849389  0.54567433    -0.79500
O206        O  0.02820893  0.77129530  0.33707672    -0.81100
O207        O  0.89407675  0.85054666  0.40880250    -0.78100
O208        O  0.88841550  0.68766599  0.40043130    -0.76500
O209        O  0.93462198  0.62349542  0.42954257    -0.78300
O210        O  0.92772421  0.90785847  0.45959840    -0.79200
O211        O  0.94260107  0.77249633  0.34483506    -0.80500
O212        O  0.83148442  0.76055557  0.45998602    -0.80800
Eu213      Eu  0.91881996  0.76620008  0.43307989     2.39200
O214        O  0.99002267  0.72010921  0.42459623    -0.88300
O215        O  0.91526690  0.80579237  0.50845629    -0.91900
C216        C  0.80545626  0.75507028  0.50203896     1.02700
C217        C  0.98426561  0.77040938  0.31896405     1.02600
C218        C  0.90122044  0.89540756  0.42327837     1.02500
C219        C  0.89988330  0.64137426  0.40379850     1.00400
H220        H  0.98617331  0.84593709  0.40370727     0.30100
O221        O  0.98853764  0.82268027  0.43259434    -1.00700
H222        H  0.88511068  0.68190648  0.49502880     0.30100
O223        O  0.91531122  0.70309057  0.49796226    -1.03300
O224        O  0.14712797  0.78635849  0.44964987    -0.80500
O225        O  0.93976293  0.73100640  0.65985309    -0.80000
O226        O  0.03727271  0.91733454  0.43819653    -0.78500
O227        O  0.05169965  0.63214009  0.42987816    -0.81800
O228        O  0.91779650  0.60247706  0.54019689    -0.79700
O229        O  0.92836674  0.88546600  0.57746277    -0.78300
O230        O  0.08121024  0.82986808  0.60636632    -0.79800
O231        O  0.09597357  0.67185413  0.57953944    -0.81800
O232        O  0.04046115  0.89675104  0.57429494    -0.78500
O233        O  0.05124188  0.61320329  0.53861798    -0.81200
O234        O  0.07583181  0.86586242  0.38444329    -0.76900
O235        O  0.88157373  0.81451564  0.61249372    -0.76900
O236        O  0.86884139  0.65358265  0.58504266    -0.76600
O237        O  0.09790020  0.70282477  0.39328207    -0.80100
O238        O  0.14269310  0.76426226  0.53436054    -0.79500
O239        O  0.02604427  0.74038267  0.65445555    -0.77800
Eu240      Eu  0.06045507  0.77814598  0.42232241     2.39800
Eu241      Eu  0.91039089  0.74061444  0.57382089     2.39600
Eu242      Eu  0.98754939  0.86284282  0.50859430     2.38400
Eu243      Eu  0.98748438  0.65719000  0.49201744     2.39900
Eu244      Eu  0.05557103  0.75281924  0.56635310     2.39800
O245        O  0.98391349  0.69432839  0.56974804    -0.92300
O246        O  0.06052700  0.81753742  0.49967223    -0.91100
C247        C  0.16702798  0.77686615  0.49182675     1.02900
C248        C  0.98289599  0.73463715  0.67922282     1.01600
C249        C  0.06251897  0.90960989  0.39632338     1.01000
C250        C  0.08845718  0.65464238  0.40119217     1.03000
C251        C  0.87779030  0.61037758  0.56809464     1.02000
C252        C  0.89453029  0.86211576  0.60931328     1.00800
C253        C  0.07021153  0.87641020  0.60521255     1.00900
C254        C  0.08827326  0.62697627  0.56457501     1.03500
H255        H  0.98217924  0.81178909  0.60389540     0.30800
O256        O  0.98285386  0.79660657  0.57219176    -1.04400
H257        H  0.08729041  0.69909137  0.48751966     0.32900
O258        O  0.05672314  0.71635751  0.49019640    -1.07000
O259        O  0.82941041  0.22696040  0.54538714    -0.79500
O260        O  0.03648589  0.29154904  0.33775869    -0.81100
O261        O  0.87379251  0.32749762  0.41499206    -0.78100
O262        O  0.91151926  0.17259032  0.39052052    -0.76500
O263        O  0.95083562  0.11264793  0.43618956    -0.78300
O264        O  0.90619170  0.39455259  0.45458053    -0.79200
O265        O  0.95219448  0.26781077  0.34190352    -0.80500
O266        O  0.83355349  0.24057418  0.45948763    -0.80800
Eu267      Eu  0.92137968  0.25341484  0.42938712     2.39200
O268        O  0.99843668  0.21870369  0.42745202    -0.88300
O269        O  0.91587061  0.29474290  0.50253570    -0.91900
C270        C  0.80943496  0.23271793  0.50284087     1.02700
C271        C  0.99478223  0.28118529  0.31785565     1.02600
C272        C  0.87303560  0.37284672  0.42868975     1.02500
C273        C  0.92517195  0.12734919  0.39940474     1.00400
H274        H  0.98239193  0.34526592  0.39607183     0.30100
O275        O  0.98457582  0.32132856  0.42465351    -1.00700
H276        H  0.89327672  0.16694861  0.49963735     0.30100
O277        O  0.92027701  0.19284467  0.49937925    -1.03300
O278        O  0.14907608  0.28464304  0.44650577    -0.80500
O279        O  0.94144567  0.24009830  0.65849313    -0.80000
O280        O  0.04363037  0.42098755  0.45317625    -0.78500
O281        O  0.05754471  0.13710872  0.42569533    -0.81800
O282        O  0.95658208  0.10337199  0.56784342    -0.79700
O283        O  0.90567106  0.38138088  0.55777525    -0.78300
O284        O  0.08036928  0.35181081  0.58607392    -0.79800
O285        O  0.08707506  0.18748175  0.59554302    -0.81800
O286        O  0.02438786  0.40755774  0.55838718    -0.78500
O287        O  0.06313786  0.12443267  0.54598942    -0.81200
O288        O  0.09948730  0.37141938  0.41549419    -0.76900
O289        O  0.87267868  0.30859134  0.60250497    -0.76900
O290        O  0.90955198  0.15284163  0.61614617    -0.76600
O291        O  0.09547746  0.21054415  0.38597230    -0.80100
O292        O  0.14569163  0.27331004  0.53240370    -0.79500
O293        O  0.02626972  0.26056810  0.65478271    -0.77800
Eu294      Eu  0.06245981  0.28339487  0.42379587     2.39800
Eu295      Eu  0.91553137  0.23781913  0.57272826     2.39600
Eu296      Eu  0.97617083  0.36226304  0.50002284     2.38400
Eu297      Eu  0.99935735  0.15830715  0.49524926     2.39900
Eu298      Eu  0.05684209  0.26683470  0.56547160     2.39800
O299        O  0.99271178  0.20288880  0.56709475    -0.92300
O300        O  0.05309156  0.32494400  0.49682968    -0.91100
C301        C  0.16954838  0.27834929  0.48843634     1.02900
C302        C  0.98289345  0.25010995  0.67888786     1.01600
C303        C  0.08640962  0.41447635  0.42932045     1.01000
C304        C  0.08714960  0.16222049  0.39115346     1.03000
C305        C  0.92889843  0.11073519  0.60804516     1.02000
C306        C  0.87399234  0.35624769  0.59035190     1.00800
C307        C  0.06335846  0.39586588  0.58112923     1.00900
C308        C  0.08594702  0.14190368  0.58256619     1.03500
H309        H  0.97591204  0.32207954  0.60069494     0.30800
O310        O  0.97929735  0.30406163  0.57070885    -1.04400
H311        H  0.09549119  0.20669990  0.49032585     0.32900
O312        O  0.06429917  0.22300323  0.49250356    -1.17400
C313        C  0.72631835  0.48232410  0.68613135     0.87100
C314        C  0.76623869  0.44775973  0.66860237    -0.53200
C315        C  0.77213339  0.44625625  0.61765000     0.10000
C316        C  0.73744740  0.48001253  0.58913207     0.21000
C317        C  0.74133371  0.53399748  0.65810660    -0.53900
C318        C  0.75084786  0.53296167  0.60778318     0.10100
C319        C  0.67808417  0.46290302  0.66329065    -0.53400
C320        C  0.68279795  0.46145260  0.61204516     0.10700
H321        H  0.78925507  0.42848876  0.69475861     0.15200
H322        H  0.74236332  0.47921594  0.54761784     0.00900
H323        H  0.75107939  0.56741911  0.67750694     0.15500
H324        H  0.64206211  0.45685037  0.68494504     0.15300
C325        C  0.21717087  0.50469573  0.68049807     0.87100
C326        C  0.20738787  0.55721114  0.65771791    -0.53200
C327        C  0.20489101  0.56040029  0.60686968     0.10000
C328        C  0.21698339  0.51050924  0.58272521     0.21000
C329        C  0.17704633  0.46929485  0.66112599    -0.53900
C330        C  0.17712814  0.47254250  0.60996088     0.10100
C331        C  0.26605059  0.49112139  0.65442762    -0.53400
C332        C  0.26712475  0.49363847  0.60304707     0.10700
H333        H  0.19605767  0.58713414  0.68073758     0.15200
H334        H  0.21670070  0.51310199  0.54111297     0.00900
H335        H  0.15105498  0.44382914  0.68544492     0.15500
H336        H  0.29808708  0.48144467  0.67536202     0.15300
C337        C  0.81243309  0.02616512  0.26768275     0.87100
C338        C  0.82350919  0.98580100  0.30853777    -0.53200
C339        C  0.87347247  0.97756421  0.30921585     0.10000
C340        C  0.90790890  0.01075864  0.27003167     0.21000
C341        C  0.84500307  0.07289917  0.27783837    -0.53900
C342        C  0.89461132  0.06490466  0.28123548     0.10100
C343        C  0.83589893  0.00842691  0.21927712    -0.53400
C344        C  0.88619850  0.00045510  0.21922526     0.10700
H345        H  0.79461838  0.96497961  0.33374230     0.15200
H346        H  0.94856163  0.00463883  0.27118729     0.00900
H347        H  0.82900777  0.10723777  0.28913968     0.15500
H348        H  0.81429628  0.00483141  0.18649091     0.15300
C349        C  0.80264065  0.99064874  0.75875075     0.87100
C350        C  0.83297877  0.04080476  0.74296310    -0.53200
C351        C  0.88314390  0.03685183  0.73425176     0.10000
C352        C  0.89908084  0.98284053  0.74842146     0.21000
C353        C  0.81833733  0.95475074  0.71942395    -0.53900
C354        C  0.86908164  0.95050316  0.71365701     0.10100
C355        C  0.82447493  0.97034951  0.80728355    -0.53400
C356        C  0.87535184  0.96618798  0.80329589     0.10700
H357        H  0.81536677  0.07536942  0.73256731     0.15200
H358        H  0.94036849  0.97973313  0.74379279     0.00900
H359        H  0.79123853  0.93672480  0.69677279     0.15500
H360        H  0.80260025  0.96630373  0.84324264     0.15300
C361        C  0.75491097  0.50564775  0.31373311     0.87100
C362        C  0.78450943  0.55525897  0.32141279    -0.53200
C363        C  0.78661469  0.56431557  0.37084446     0.10000
C364        C  0.75939626  0.52336706  0.40817932     0.21000
C365        C  0.78031115  0.46574969  0.34385429    -0.53900
C366        C  0.78390845  0.47460513  0.39334959     0.10100
C367        C  0.70416510  0.50877815  0.34137500    -0.53400
C368        C  0.70532520  0.51911298  0.39077208     0.10700
H369        H  0.80343204  0.58001017  0.29091490     0.15200
H370        H  0.76189909  0.53088400  0.44830908     0.00900
H371        H  0.79851680  0.43599800  0.32555527     0.15500
H372        H  0.66972703  0.50381056  0.32221337     0.15300
C373        C  0.24354058  0.53413604  0.31207826     0.87100
C374        C  0.21894584  0.48751786  0.34395853    -0.53200
C375        C  0.21161213  0.49380383  0.39376786     0.10000
C376        C  0.23359737  0.54605524  0.40809728     0.21000
C377        C  0.21064392  0.57686756  0.32530393    -0.53900
C378        C  0.20477145  0.58286329  0.37556802     0.10100
C379        C  0.29351158  0.54695528  0.33487432    -0.53400
C380        C  0.28958193  0.55401243  0.38503900     0.10700
H381        H  0.20280854  0.45397485  0.32887130     0.15200
H382        H  0.22891064  0.55107403  0.44897043     0.00900
H383        H  0.19221231  0.59931780  0.29735585     0.15500
H384        H  0.32960350  0.54597781  0.31379639     0.15300
C385        C  0.17620336  0.03392389  0.24021407     0.87100
C386        C  0.16144904  0.07050753  0.27919580    -0.53200
C387        C  0.11072288  0.07402887  0.28658681     0.10000
C388        C  0.07983135  0.04070973  0.25329404     0.21000
C389        C  0.14658154  0.98366895  0.25785791    -0.53900
C390        C  0.09666754  0.98722539  0.26838084     0.10100
C391        C  0.15290351  0.05307853  0.19230808    -0.53400
C392        C  0.10204701  0.05663657  0.19756303     0.10700
H393        H  0.18904226  0.08902404  0.30098993     0.15200
H394        H  0.03859782  0.04354263  0.25903437     0.00900
H395        H  0.16468948  0.94939918  0.26819230     0.15500
H396        H  0.17388595  0.05692400  0.15584836     0.15300
C397        C  0.17653173  0.01752108  0.73320981     0.87100
C398        C  0.15226440  0.97150733  0.71044454    -0.53200
C399        C  0.10154458  0.97359258  0.70480305     0.10000
C400        C  0.07952793  0.02079043  0.72727206     0.21000
C401        C  0.16193119  0.06269745  0.70054511    -0.53900
C402        C  0.11132803  0.06407542  0.69747470     0.10100
C403        C  0.14779690  0.02113074  0.78314347    -0.53400
C404        C  0.09688085  0.02360191  0.78132026     0.10700
H405        H  0.17524095  0.94332285  0.69542511     0.15200
H406        H  0.03836144  0.02257350  0.72439734     0.00900
H407        H  0.18901364  0.09043392  0.68040080     0.15500
H408        H  0.16714198  0.02289477  0.81758518     0.15300
O409        O  0.75605845  0.67081453  0.93870088    -0.79500
O410        O  0.72355798  0.47374546  0.16060479    -0.81100
O411        O  0.65278523  0.61033353  0.08843976    -0.78100
O412        O  0.81089057  0.61158630  0.09887372    -0.76500
O413        O  0.87483873  0.56630161  0.06839522    -0.78300
O414        O  0.59397496  0.57370343  0.04137793    -0.79200
O415        O  0.72540444  0.56000303  0.14981596    -0.80500
O416        O  0.74174714  0.66885981  0.02398226    -0.80800
Eu417      Eu  0.73495654  0.58273891  0.06169880     2.39200
O418        O  0.77911575  0.50957565  0.07379799    -0.88300
O419        O  0.69547620  0.58396091  0.98651758    -0.91900
C420        C  0.74866752  0.69212010  0.97993443     1.02700
C421        C  0.72442601  0.51840153  0.17689820     1.02600
C422        C  0.60742998  0.60212466  0.07594045     1.02500
C423        C  0.85691901  0.60031956  0.09539846     1.00400
H424        H  0.65535519  0.51585839  0.09515605     0.30100
O425        O  0.67827740  0.51270466  0.06640376    -1.00700
H426        H  0.81826251  0.61164803  0.99990959     0.30100
O427        O  0.79706576  0.58137067  0.99749806    -1.03300
O428        O  0.71218215  0.35099265  0.05201393    -0.80500
O429        O  0.76951620  0.55157160  0.83657436    -0.80000
O430        O  0.58189405  0.46482667  0.06208849    -0.78500
O431        O  0.86629003  0.44118958  0.06736582    -0.81800
O432        O  0.89709152  0.57741639  0.95916563    -0.79700
O433        O  0.61294139  0.57268698  0.92618927    -0.78300
O434        O  0.66563932  0.41761607  0.89472589    -0.79800
O435        O  0.82653908  0.40041092  0.92077193    -0.81800
O436        O  0.60126607  0.46002696  0.92910582    -0.78500
O437        O  0.88586781  0.44595898  0.96023066    -0.81200
O438        O  0.63265250  0.42576012  0.11639416    -0.76900
O439        O  0.68427845  0.60859265  0.88114708    -0.76900
O440        O  0.84627614  0.62382225  0.91083113    -0.76600
O441        O  0.79465724  0.40228726  0.10942129    -0.80100
O442        O  0.73144405  0.35298648  0.96701088    -0.79500
O443        O  0.75498441  0.46548860  0.84474862    -0.77800
Eu444      Eu  0.72025461  0.43904640  0.07746889     2.39800
Eu445      Eu  0.75954128  0.58255931  0.92102163     2.39600
Eu446      Eu  0.63725856  0.51257596  0.99212328     2.38400
Eu447      Eu  0.84199764  0.50888277  0.00754081     2.39900
Eu448      Eu  0.74447288  0.43956581  0.93393700     2.39800
O449        O  0.80515980  0.50935231  0.92907477    -0.92300
O450        O  0.68041196  0.43779973  0.00084561    -0.91100
C451        C  0.72033489  0.32977311  0.01040621     1.02900
C452        C  0.76294150  0.50803927  0.81864937     1.01600
C453        C  0.58915931  0.43952619  0.10415034     1.01000
C454        C  0.84258046  0.40709005  0.09871672     1.03000
C455        C  0.88894368  0.61636427  0.92956213     1.02000
C456        C  0.63619891  0.60082391  0.88958312     1.00800
C457        C  0.61978571  0.43042516  0.89750677     1.00900
C458        C  0.87189368  0.40888565  0.93433928     1.03500
H459        H  0.68544978  0.51293323  0.89520107     0.30800
O460        O  0.70116504  0.51250422  0.92667473    -1.04400
H461        H  0.79800261  0.40939949  0.01327461     0.32900
O462        O  0.78141419  0.44045219  0.01002984    -1.07000
O463        O  0.27166422  0.67154232  0.95626586    -0.79500
O464        O  0.22577685  0.45183929  0.15446959    -0.81100
O465        O  0.17712494  0.61568271  0.09123083    -0.78100
O466        O  0.33481978  0.57707949  0.10393541    -0.76500
O467        O  0.39350231  0.54017408  0.05503050    -0.78300
O468        O  0.11017397  0.58501253  0.05048447    -0.79200
O469        O  0.24286129  0.53729035  0.15331450    -0.80500
O470        O  0.26437603  0.66175091  0.04241266    -0.80800
Eu471      Eu  0.25263420  0.57237621  0.06706286     2.39200
O472        O  0.28880921  0.49649929  0.06057027    -0.88300
O473        O  0.20842046  0.58310573  0.99588597    -0.91900
C474        C  0.26870013  0.68855398  0.00029558     1.02700
C475        C  0.23417427  0.49313665  0.17619318     1.02600
C476        C  0.13111908  0.61575962  0.07929721     1.02500
C477        C  0.37945305  0.56254895  0.09427921     1.00400
H478        H  0.16456146  0.50679127  0.10079040     0.30100
O479        O  0.18708189  0.50705171  0.07099367    -1.00700
H480        H  0.33633241  0.60505841  0.99563694     0.30100
O481        O  0.31077195  0.57785469  0.99501895    -1.03300
O482        O  0.22880879  0.34570813  0.03365086    -0.80500
O483        O  0.25961247  0.56779756  0.83627592    -0.80000
O484        O  0.08888020  0.44802299  0.04360835    -0.78500
O485        O  0.37332942  0.43673102  0.05455630    -0.81800
O486        O  0.40063802  0.54838136  0.92204051    -0.79700
O487        O  0.11905958  0.59215413  0.94258549    -0.78300
O488        O  0.14965949  0.42322019  0.90533279    -0.79800
O489        O  0.30961947  0.40921066  0.89057936    -0.81800
O490        O  0.09395159  0.47469215  0.94069030    -0.78500
O491        O  0.37621304  0.44003890  0.93188038    -0.81200
O492        O  0.14019350  0.39135303  0.07827425    -0.76900
O493        O  0.18972825  0.62840121  0.89702682    -0.76900
O494        O  0.34928934  0.60176668  0.88271789    -0.76600
O495        O  0.30325913  0.40164197  0.10212848    -0.80100
O496        O  0.22591186  0.35607965  0.94816715    -0.79500
O497        O  0.24019539  0.48268998  0.83718473    -0.77800
Eu498      Eu  0.22719153  0.43001144  0.06612162     2.39800
Eu499      Eu  0.26333351  0.58745305  0.92374330     2.39600
Eu500      Eu  0.14264282  0.52053440  0.99812353     2.38400
Eu501      Eu  0.34689654  0.49924354  0.99110131     2.39900
Eu502      Eu  0.23552447  0.44605769  0.92392515     2.39800
O503        O  0.29967586  0.51042375  0.92118480    -0.92300
O504        O  0.18157388  0.44445604  0.99586588    -0.91100
C505        C  0.22775061  0.32882950  0.98956314     1.02900
C506        C  0.24965160  0.52706541  0.81460687     1.01600
C507        C  0.09661340  0.40446232  0.06597317     1.01000
C508        C  0.35114513  0.40908435  0.09223734     1.03000
C509        C  0.39195984  0.58217859  0.88692436     1.02000
C510        C  0.14227390  0.62509268  0.90968588     1.00800
C511        C  0.10535391  0.43810177  0.91433237     1.00900
C512        C  0.35632693  0.41320415  0.89908476     1.03500
H513        H  0.17857729  0.52761511  0.89581718     0.30800
O514        O  0.19780155  0.52295418  0.92492772    -1.04400
H515        H  0.30024372  0.40208928  0.99296111     0.32900
O516        O  0.28355385  0.43311991  0.99385736    -1.07000
C517        C  0.01030395  0.76904267  0.81225364     0.87100
C518        C  0.04489200  0.72861420  0.82959180    -0.53200
C519        C  0.04752310  0.72298093  0.88051746     0.10000
C520        C  0.01500635  0.75845703  0.90908801     0.21000
C521        C  0.95938871  0.75452843  0.84129820    -0.53900
C522        C  0.96170022  0.74534999  0.89162877     0.10100
C523        C  0.03061032  0.81742914  0.83427416    -0.53400
C524        C  0.03330996  0.81311942  0.88538373     0.10700
H525        H  0.06349415  0.70510990  0.80362781     0.15200
H526        H  0.01683743  0.75383936  0.95051384     0.00900
H527        H  0.92561062  0.74441973  0.82264071     0.15500
H528        H  0.03605984  0.85352009  0.81223357     0.15300
C529        C  0.00147716  0.28278345  0.81456958     0.87100
C530        C  0.94830030  0.29385993  0.83411249    -0.53200
C531        C  0.94232560  0.29646828  0.88494961     0.10000
C532        C  0.99015186  0.28338478  0.91233307     0.21000
C533        C  0.03594562  0.32254655  0.83582394    -0.53900
C534        C  0.02964793  0.32302557  0.88692554     0.10100
C535        C  0.01259929  0.23346212  0.84229768    -0.53400
C536        C  0.00715120  0.23247741  0.89358303     0.10700
H537        H  0.91996978  0.30535606  0.80909347     0.15200
H538        H  0.98526346  0.28388258  0.95383991     0.00900
H539        H  0.06258428  0.34835985  0.81264081     0.15500
H540        H  0.02275494  0.20093462  0.82242472     0.15300
C541        C  0.52006220  0.69262672  0.73364216     0.87100
C542        C  0.47293639  0.66056517  0.75576261    -0.53200
C543        C  0.47963479  0.61059742  0.76491236     0.10000
C544        C  0.53196326  0.59641088  0.74342825     0.21000
C545        C  0.56173678  0.67895118  0.76746803    -0.53900
C546        C  0.56800726  0.62849250  0.77266947     0.10100
C547        C  0.53438154  0.67103518  0.68380332    -0.53400
C548        C  0.54072467  0.62045421  0.68790012     0.10700
H549        H  0.43898699  0.67714180  0.76934930     0.15200
H550        H  0.53721564  0.55529838  0.74773367     0.00900
H551        H  0.58353228  0.70666755  0.78655187     0.15500
H552        H  0.53364937  0.69261501  0.64779068     0.15300
C553        C  0.47046857  0.68693872  0.23066547     0.87100
C554        C  0.51385503  0.67927634  0.19196913    -0.53200
C555        C  0.52406201  0.62972533  0.18948039     0.10000
C556        C  0.48980101  0.59225390  0.22516786     0.21000
C557        C  0.42618197  0.65386511  0.21569684    -0.53900
C558        C  0.43623103  0.60480038  0.21115846     0.10100
C559        C  0.48535794  0.66121779  0.27944513    -0.53400
C560        C  0.49556842  0.61146749  0.27799248     0.10700
H561        H  0.53497015  0.71005742  0.16934552     0.15200
H562        H  0.49751635  0.55198879  0.22244458     0.00900
H563        H  0.39152221  0.66908628  0.20431614     0.15500
H564        H  0.48603653  0.68129410  0.31343055     0.15300
C565        C  0.96930980  0.25208584  0.18433885     0.87100
C566        C  0.01972514  0.26842011  0.15496486    -0.53200
C567        C  0.01655008  0.27887699  0.10489851     0.10000
C568        C  0.96285449  0.26587910  0.08810184     0.21000
C569        C  0.93408861  0.29246804  0.16956312    -0.53900
C570        C  0.93053727  0.30038508  0.11901109     0.10100
C571        C  0.94909136  0.20456073  0.16132201    -0.53400
C572        C  0.94582770  0.21009028  0.11049431     0.10700
H573        H  0.05385966  0.27783040  0.17332332     0.15200
H574        H  0.96005696  0.27201614  0.04691199     0.00900
H575        H  0.91636501  0.31464381  0.19728839     0.15500
H576        H  0.94444267  0.16793222  0.18248856     0.15300
C577        C  0.00514041  0.74394421  0.17930503     0.87100
C578        C  0.96665496  0.70136733  0.16833739    -0.53200
C579        C  0.96089138  0.69821636  0.11787335     0.10000
C580        C  0.99412148  0.73771693  0.08357552     0.21000
C581        C  0.05335135  0.73453352  0.14890081    -0.53900
C582        C  0.04736627  0.72680751  0.09966867     0.10100
C583        C  0.98671605  0.79093587  0.15357490    -0.53400
C584        C  0.98108001  0.78945872  0.10312915     0.10700
H585        H  0.94764278  0.67533753  0.19765527     0.15200
H586        H  0.99003279  0.73538394  0.04273220     0.00900
H587        H  0.08793029  0.72796969  0.16676690     0.15500
H588        H  0.98106773  0.82432378  0.17387360     0.15300
C589        C  0.50700853  0.32681674  0.76426154     0.87100
C590        C  0.55508879  0.35745189  0.77445188    -0.53200
C591        C  0.54916842  0.40750268  0.77959078     0.10000
C592        C  0.49618507  0.42341986  0.76756126     0.21000
C593        C  0.46804504  0.33909106  0.80532015    -0.53900
C594        C  0.46253917  0.38985143  0.80682472     0.10100
C595        C  0.48968709  0.35166346  0.71638538    -0.53400
C596        C  0.48346373  0.40241758  0.71680059     0.10700
H597        H  0.58849019  0.33947611  0.78547703     0.15200
H598        H  0.49205084  0.46458686  0.76883798     0.00900
H599        H  0.44841871  0.31045124  0.83176465     0.15500
H600        H  0.48386462  0.33022816  0.68388320     0.15300
C601        C  0.46315680  0.32106960  0.25628616     0.87100
C602        C  0.42565066  0.33475939  0.21775885    -0.53200
C603        C  0.42015139  0.38530927  0.21084970     0.10000
C604        C  0.45276637  0.41749949  0.24384032     0.21000
C605        C  0.51206394  0.35253089  0.23830143    -0.53900
C606        C  0.50680120  0.40256845  0.22847209     0.10100
C607        C  0.44374806  0.34364986  0.30447138    -0.53400
C608        C  0.43835417  0.39450901  0.29956947     0.10700
H609        H  0.40570947  0.30678274  0.19737629     0.15200
H610        H  0.44822638  0.45865487  0.23801416     0.00900
H611        H  0.54690622  0.33572211  0.22801475     0.15500
H612        H  0.44106036  0.32231484  0.34087321     0.15300
O613        O  0.57091225  0.39151239  0.42343066    -0.79500
O614        O  0.45462462  0.47354891  0.66246689    -0.81100
O615        O  0.60091290  0.43149218  0.58144372    -0.78100
O616        O  0.45330480  0.34232517  0.53799714    -0.76500
O617        O  0.38834051  0.37153410  0.49549550    -0.78300
O618        O  0.63633875  0.51187535  0.56315090    -0.79200
O619        O  0.49293661  0.40722742  0.63115910    -0.80500
O620        O  0.55569117  0.35751337  0.50466373    -0.80800
Eu621      Eu  0.51313566  0.41969262  0.54410740     2.39200
O622        O  0.43189820  0.45116088  0.55273703    -0.88300
O623        O  0.56730822  0.47248770  0.48841559    -0.91900
C624        C  0.57374211  0.35570981  0.45976033     1.02700
C625        C  0.47543936  0.43051842  0.66774258     1.02600
C626        C  0.63724901  0.46718963  0.58306003     1.02500
C627        C  0.41053739  0.33606751  0.51771195     1.00400
H628        H  0.53506970  0.49637062  0.60753178     0.30100
O629        O  0.51993005  0.49900059  0.57577107    -1.00700
H630        H  0.47619144  0.39338299  0.45079371     0.30100
O631        O  0.47900867  0.42588376  0.46466321    -1.03300
O632        O  0.40512661  0.62143562  0.57349003    -0.80500
O633        O  0.52166050  0.53942767  0.33259961    -0.80000
O634        O  0.56591814  0.58826990  0.60743845    -0.78500
O635        O  0.32301699  0.47042875  0.53193898    -0.81800
O636        O  0.41092383  0.42549367  0.38191861    -0.79700
O637        O  0.65117806  0.54268370  0.46253915    -0.78300
O638        O  0.51922333  0.67047698  0.46538239    -0.79800
O639        O  0.37139560  0.58176809  0.41612474    -0.81800
O640        O  0.58719702  0.63860889  0.49999765    -0.78500
O641        O  0.33622411  0.50072575  0.43134370    -0.81200
O642        O  0.48520926  0.57614212  0.64327523    -0.76900
O643        O  0.62005546  0.50191722  0.39813764    -0.76900
O644        O  0.49180341  0.43917604  0.34695886    -0.76600
O645        O  0.35275896  0.50999234  0.59835902    -0.80100
O646        O  0.41899815  0.65626696  0.49243432    -0.79500
O647        O  0.48074918  0.60431104  0.36361432    -0.77800
Eu648      Eu  0.44045132  0.53233944  0.58468069     2.39800
Eu649      Eu  0.53318482  0.47965629  0.40994505     2.39600
Eu650      Eu  0.57388401  0.55205014  0.52073252     2.38400
Eu651      Eu  0.39973875  0.45917052  0.47164487     2.39900
Eu652      Eu  0.46031099  0.59339019  0.45094246     2.39800
O653        O  0.45419600  0.51388115  0.41843381    -0.92300
O654        O  0.49488248  0.58546795  0.52932726    -0.91100
C655        C  0.40223535  0.65790444  0.53796628     1.02900
C656        C  0.50043945  0.58213034  0.32719549     1.01600
C657        C  0.53115660  0.59221070  0.64360403     1.01000
C658        C  0.31689959  0.49059758  0.57491595     1.03000
C659        C  0.44614164  0.42272827  0.34536192     1.02000
C660        C  0.65640920  0.52199160  0.42008073     1.00800
C661        C  0.56298600  0.67546322  0.48428367     1.00900
C662        C  0.33489890  0.54636101  0.41382845     1.03500
H663        H  0.56355084  0.58415392  0.41788028     0.30800
O664        O  0.54139219  0.56152033  0.44044557    -1.04400
H665        H  0.37531454  0.55325315  0.50851338     0.32900
O666        O  0.40741451  0.53870613  0.50547938    -1.07000
O667        O  0.10551240  0.92662581  0.07577929    -0.79500
O668        O  0.02450661  0.04737071  0.83574556    -0.81100
O669        O  0.06388638  0.89417275  0.91742895    -0.78100
O670        O  0.15534331  0.04141436  0.96295424    -0.76500
O671        O  0.12451014  0.10629771  0.00372119    -0.78300
O672        O  0.98185736  0.86233859  0.92952819    -0.79200
O673        O  0.08876804  0.00443745  0.86604456    -0.80500
O674        O  0.13934745  0.94009170  0.99454220    -0.80800
Eu675      Eu  0.07693725  0.98286184  0.95306538     2.39200
O676        O  0.04557932  0.06493527  0.94469183    -0.88300
O677        O  0.02227893  0.92950377  0.00758297    -0.91900
C678        C  0.14138822  0.92320081  0.04011006     1.02700
C679        C  0.06680157  0.02563054  0.83007635     1.02600
C680        C  0.02727989  0.85933780  0.91324703     1.02500
C681        C  0.16088746  0.08395625  0.98411406     1.00400
H682        H  0.99970873  0.96386507  0.88804721     0.30100
O683        O  0.99746493  0.97833964  0.92010862    -1.00700
H684        H  0.10208577  0.01954377  0.04657810     0.30100
O685        O  0.06999649  0.01717011  0.03202435    -1.03300
O686        O  0.87499120  0.09309312  0.92554628    -0.80500
O687        O  0.95682681  0.97471548  0.16352177    -0.80000
O688        O  0.90562714  0.93701158  0.88576751    -0.78500
O689        O  0.02806177  0.17499047  0.96512666    -0.81800
O690        O  0.07086848  0.08481710  0.11537727    -0.79700
O691        O  0.95462963  0.84560753  0.03230389    -0.78300
O692        O  0.82826422  0.97693126  0.03895470    -0.79800
O693        O  0.91754376  0.12699922  0.08145904    -0.81800
O694        O  0.85661486  0.91211703  0.99600482    -0.78500
O695        O  0.99798090  0.16223834  0.06464531    -0.81200
O696        O  0.92168681  0.01802801  0.85060395    -0.76900
O697        O  0.99713012  0.87517753  0.09656598    -0.76900
O698        O  0.05769884  0.00325065  0.14991429    -0.76600
O699        O  0.98700035  0.14683043  0.89896968    -0.80100
O700        O  0.84109398  0.07705219  0.00655655    -0.79500
O701        O  0.89164264  0.01650280  0.13387006    -0.77800
Eu702      Eu  0.96438353  0.05864575  0.91262321     2.39800
Eu703      Eu  0.01689794  0.96285503  0.08664607     2.39600
Eu704      Eu  0.94301141  0.92424384  0.97365817     2.38400
Eu705      Eu  0.03751289  0.09711075  0.02550681     2.39900
Eu706      Eu  0.90500470  0.03744080  0.04707878     2.39800
O707        O  0.98391247  0.04289031  0.08021590    -0.92300
O708        O  0.91100216  0.00423507  0.96776398    -0.91100
C709        C  0.83884141  0.09473583  0.96139122     1.02900
C710        C  0.91432983  0.99605043  0.16965265     1.01600
C711        C  0.90335805  0.97282119  0.84937615     1.01000
C712        C  0.00769076  0.18215625  0.92226477     1.03000
C713        C  0.07385666  0.04910140  0.15176010     1.02000
C714        C  0.97669466  0.83920262  0.07425335     1.00800
C715        C  0.82170576  0.93430526  0.01823683     1.00900
C716        C  0.95286228  0.16388627  0.08265234     1.03500
H717        H  0.91349305  0.93305936  0.07756150     0.30800
O718        O  0.93585485  0.95549331  0.05502245    -1.04400
H719        H  0.94402080  0.12351358  0.98892987     0.32900
O720        O  0.95825005  0.09111223  0.99186408    -1.07000
C721        C  0.06503620  0.40791156  0.89552005    -0.15800
C722        C  0.05693800  0.35996695  0.91438731    -0.31000
H723        H  0.04714724  0.42219908  0.86256732     0.13200
H724        H  0.07325564  0.34695661  0.94880294     0.13800
C725        C  0.05240503  0.36687864  0.07857070    -0.15800
C726        C  0.05578189  0.31608396  0.07820119    -0.31000
H727        H  0.01653311  0.38120431  0.08973028     0.13200
H728        H  0.09180630  0.30189479  0.06733039     0.13800
C729        C  0.07805035  0.68937703  0.07462251    -0.15800
C730        C  0.10066137  0.65339202  0.10177024    -0.31000
H731        H  0.07923647  0.68918797  0.03399374     0.13200
H732        H  0.09923603  0.65225820  0.14242038     0.13800
C733        C  0.07444270  0.68304159  0.90646067    -0.15800
C734        C  0.11333982  0.66241628  0.88359897    -0.31000
H735        H  0.06316561  0.67183871  0.94563472     0.13200
H736        H  0.12773527  0.67679015  0.84604123     0.13800
C737        C  0.43138252  0.41164382  0.84533674    -0.15800
C738        C  0.38956589  0.38696817  0.86673289    -0.31000
H739        H  0.44109350  0.45041048  0.85344758     0.13200
H740        H  0.37634552  0.35056746  0.85480132     0.13800
C741        C  0.43361208  0.60277821  0.84989247    -0.15800
C742        C  0.44813442  0.58079453  0.80724925    -0.31000
H743        H  0.44739673  0.64142717  0.85412617     0.13200
H744        H  0.43526425  0.54202277  0.80245999     0.13800
C745        C  0.41728015  0.57241878  0.13091006    -0.15800
C746        C  0.40378126  0.57516553  0.17996350    -0.31000
H747        H  0.45629174  0.58056628  0.11699777     0.13200
H748        H  0.36448208  0.56791383  0.19330998     0.13800
C749        C  0.38877833  0.40716555  0.17250638    -0.15800
C750        C  0.38291619  0.38626954  0.12870400    -0.31000
H751        H  0.37195133  0.44235231  0.17944017     0.13200
H752        H  0.40263616  0.35352757  0.11899934     0.13800
C753        C  0.54460147  0.42486619  0.14072212    -0.15800
C754        C  0.54447891  0.43128862  0.19085943    -0.31000
H755        H  0.51160112  0.40647955  0.12634544     0.13200
H756        H  0.57726937  0.45002185  0.20525109     0.13800
C757        C  0.56789479  0.62371791  0.10646628    -0.15800
C758        C  0.56483310  0.61314111  0.15643621    -0.31000
H759        H  0.53901907  0.64384524  0.08842223     0.13200
H760        H  0.59054809  0.58790784  0.17325540     0.13800
C761        C  0.60519379  0.62452066  0.85342435    -0.15800
C762        C  0.60188155  0.60670283  0.80805943    -0.31000
H763        H  0.58181885  0.65395850  0.86543587     0.13200
H764        H  0.62127987  0.57367136  0.79842042     0.13800
C765        C  0.58644525  0.40892824  0.86173553    -0.15800
C766        C  0.57871763  0.43331437  0.81697678    -0.31000
H767        H  0.57092998  0.37037422  0.87085108     0.13200
H768        H  0.59294322  0.47233870  0.80837996     0.13800
C769        C  0.90427321  0.34283119  0.09606781    -0.15800
C770        C  0.87131501  0.36840195  0.12283712    -0.31000
H771        H  0.91158183  0.35263218  0.05597840     0.13200
H772        H  0.85960879  0.35618756  0.16158981     0.13800
C773        C  0.91133544  0.37384761  0.92040233    -0.15800
C774        C  0.90143635  0.32699893  0.90519891    -0.31000
H775        H  0.95026228  0.38705204  0.92345788     0.13200
H776        H  0.86279514  0.31399225  0.90042986     0.13800
C777        C  0.93097148  0.65602374  0.91741698    -0.15800
C778        C  0.92390974  0.70614143  0.91706928    -0.31000
H779        H  0.96816986  0.64385417  0.90791552     0.13200
H780        H  0.88643582  0.71783044  0.92641805     0.13800
C781        C  0.93015422  0.65819753  0.09638019    -0.15800
C782        C  0.89158200  0.63143370  0.12223603    -0.31000
H783        H  0.93720611  0.65337599  0.05654268     0.13200
H784        H  0.88035123  0.63934380  0.16046091     0.13800
C785        C  0.24904899  0.53029849  0.25589435    -0.15800
C786        C  0.23330319  0.49010512  0.23136694    -0.31000
H787        H  0.26505755  0.56435923  0.23425570     0.13200
H788        H  0.21893362  0.45466807  0.25087940     0.13800
C789        C  0.75083736  0.49442913  0.26005602    -0.15800
C790        C  0.72576181  0.52441079  0.23021758    -0.31000
H791        H  0.76802908  0.46195325  0.24563857     0.13200
H792        H  0.71047399  0.55793207  0.24449075     0.13800
C793        C  0.21766760  0.50099508  0.73660376    -0.15800
C794        C  0.24856745  0.53175461  0.75994962    -0.31000
H795        H  0.19232606  0.47279207  0.75846508     0.13200
H796        H  0.27199932  0.56181437  0.73855869     0.13800
C797        C  0.72409816  0.48504313  0.74230721    -0.15800
C798        C  0.76338295  0.50660442  0.76421391    -0.31000
H799        H  0.69075319  0.46938116  0.76505058     0.13200
H800        H  0.79570709  0.52473279  0.74158971     0.13800
C801        C  0.99541756  0.28446614  0.26344012    -0.15800
C802        C  0.97350442  0.24684564  0.23992235    -0.31000
H803        H  0.01400388  0.31772513  0.24245221     0.13200
H804        H  0.95731550  0.21277919  0.26133601     0.13800
C805        C  0.00832786  0.28174188  0.75826088    -0.15800
C806        C  0.97921811  0.25013776  0.73385692    -0.31000
H807        H  0.03673592  0.30748813  0.73727672     0.13200
H808        H  0.94918615  0.22633270  0.75476157     0.13800
C809        C  0.83028124  0.40008725  0.41216893    -0.15800
C810        C  0.81939853  0.44674852  0.42369696    -0.31000
H811        H  0.80638862  0.37997177  0.38776027     0.13200
H812        H  0.83994994  0.46627090  0.45110809     0.13800
C813        C  0.83544870  0.38318009  0.61600089    -0.15800
C814        C  0.81182589  0.41954869  0.59188118    -0.31000
H815        H  0.82317320  0.36918464  0.65420055     0.13200
H816        H  0.82125535  0.42956096  0.55210283     0.13800
C817        C  0.09344526  0.43583308  0.60053869    -0.15800
C818        C  0.14173663  0.44242660  0.58372966    -0.31000
H819        H  0.07767463  0.45705886  0.63028630     0.13200
H820        H  0.15599165  0.42360087  0.55148111     0.13800
C821        C  0.12300524  0.45917479  0.41555875    -0.15800
C822        C  0.17271943  0.45901508  0.42421388    -0.31000
H823        H  0.10975463  0.49127574  0.39410027     0.13200
H824        H  0.18590902  0.42714655  0.44604205     0.13800
C825        C  0.09007386  0.09981320  0.66305803    -0.15800
C826        C  0.10879803  0.10648704  0.61538263    -0.31000
H827        H  0.05687033  0.11819435  0.67585183     0.13200
H828        H  0.13838515  0.08429021  0.60067331     0.13800
C829        C  0.91061958  0.07558762  0.69721496    -0.15800
C830        C  0.91824057  0.06799651  0.64767201    -0.31000
H831        H  0.91390736  0.11403085  0.70845317     0.13200
H832        H  0.91427684  0.02993542  0.63567382     0.13800
C833        C  0.92220111  0.09584894  0.31544292    -0.15800
C834        C  0.90976268  0.08949948  0.36521263    -0.31000
H835        H  0.94660294  0.12804961  0.29970047     0.13200
H836        H  0.88563791  0.05696478  0.38081078     0.13800
C837        C  0.11261897  0.13449949  0.35289322    -0.15800
C838        C  0.08705708  0.10016617  0.32815541    -0.31000
H839        H  0.15104115  0.14748857  0.34053101     0.13200
H840        H  0.04717167  0.09142757  0.33808543     0.13800
C841        C  0.97863535  0.76532654  0.26524565    -0.15800
C842        C  0.01400258  0.74895259  0.23405629    -0.31000
H843        H  0.94230434  0.77268211  0.25118609     0.13200
H844        H  0.05023660  0.74085229  0.24782768     0.13800
C845        C  0.98358562  0.73342485  0.73390556    -0.15800
C846        C  0.00624645  0.77193220  0.75614609    -0.31000
H847        H  0.96539402  0.70078058  0.75619717     0.13200
H848        H  0.02211053  0.80546147  0.73350228     0.13800
C849        C  0.16893901  0.61690057  0.39693250    -0.15800
C850        C  0.12421238  0.62275341  0.37770112    -0.31000
H851        H  0.17779576  0.63452916  0.43101386     0.13200
H852        H  0.11267125  0.60164993  0.34662330     0.13800
C853        C  0.12439493  0.58816813  0.57678618    -0.15800
C854        C  0.17304378  0.59946185  0.58536334    -0.31000
H855        H  0.11061642  0.54881329  0.57788215     0.13200
H856        H  0.18667779  0.63872059  0.58558196     0.13800
C857        C  0.83909915  0.56703788  0.58067746    -0.15800
C858        C  0.78873633  0.57263631  0.58273847    -0.31000
H859        H  0.85229017  0.52975846  0.58864731     0.13200
H860        H  0.77588202  0.61010957  0.57501838     0.13800
C861        C  0.86833187  0.60547477  0.37942274    -0.15800
C862        C  0.81840791  0.60551837  0.38719523    -0.31000
H863        H  0.88532803  0.57501577  0.36096719     0.13200
H864        H  0.80143774  0.63200360  0.41117887     0.13800
C865        C  0.07604032  0.95334782  0.35817743    -0.15800
C866        C  0.07074562  0.94987857  0.30811248    -0.31000
H867        H  0.09177685  0.98837438  0.37108823     0.13200
H868        H  0.05479541  0.91473934  0.29563104     0.13800
C869        C  0.88077887  0.93562167  0.39274869    -0.15800
C870        C  0.89282192  0.93922055  0.34317319    -0.31000
H871        H  0.85869245  0.96327372  0.41031018     0.13200
H872        H  0.91942429  0.91453027  0.32708108     0.13800
C873        C  0.86862486  0.89102251  0.64630699    -0.15800
C874        C  0.89399317  0.92313373  0.67362607    -0.31000
H875        H  0.82893273  0.88083356  0.65509450     0.13200
H876        H  0.93458801  0.92910309  0.66699997     0.13800
C877        C  0.09530405  0.90698810  0.64221127    -0.15800
C878        C  0.07429613  0.94358917  0.66761610    -0.31000
H879        H  0.13164906  0.89492720  0.65165656     0.13200
H880        H  0.03655603  0.95322241  0.65982973     0.13800
C881        C  0.24534343  0.74519504  0.51893020    -0.15800
C882        C  0.22180628  0.78058626  0.49251844    -0.31000
H883        H  0.22359148  0.71231463  0.53723203     0.13200
H884        H  0.24270156  0.81263077  0.47172573     0.13800
C885        C  0.24504578  0.24268362  0.51784523    -0.15800
C886        C  0.22394706  0.27377603  0.48502144    -0.31000
H887        H  0.22162233  0.22164298  0.54809916     0.13200
H888        H  0.24665515  0.29324793  0.45337607     0.13800
C889        C  0.75273491  0.25141392  0.98468029    -0.15800
C890        C  0.71765048  0.27469969  0.01138977    -0.31000
H891        H  0.78473288  0.27354808  0.96513947     0.13200
H892        H  0.68669426  0.25332708  0.03329710     0.13800
C893        C  0.25154335  0.24441085  0.01853800    -0.15800
C894        C  0.23133516  0.27486095  0.98441259    -0.31000
H895        H  0.26366219  0.25873734  0.05316313     0.13200
H896        H  0.22070972  0.26021576  0.94937475     0.13800
C897        C  0.71788868  0.76850335  0.53236713    -0.15800
C898        C  0.75135151  0.75666133  0.49669039    -0.31000
H899        H  0.72956624  0.77531878  0.56959998     0.13200
H900        H  0.73865980  0.75125739  0.45946197     0.13800
C901        C  0.74736106  0.74709884  0.97701608    -0.15800
C902        C  0.72442473  0.76922808  0.01481127    -0.31000
H903        H  0.76404445  0.76948198  0.94378670     0.13200
H904        H  0.70590640  0.74612061  0.04676761     0.13800
C905        C  0.22866194  0.76449982  0.02182473    -0.15800
C906        C  0.26942283  0.74281636  0.00330616    -0.31000
H907        H  0.19376303  0.74186545  0.03268111     0.13200
H908        H  0.30390405  0.76531648  0.99066882     0.13800
C909        C  0.23197545  0.02884983  0.23521753    -0.15800
C910        C  0.25510441  0.00417713  0.27188864    -0.31000
H911        H  0.25367028  0.04559344  0.20160692     0.13200
H912        H  0.23380845  0.98514382  0.30458466     0.13800
C913        C  0.72471065  0.99946899  0.25335264    -0.15800
C914        C  0.75760238  0.03609147  0.26480381    -0.31000
H915        H  0.73793149  0.96220939  0.24833933     0.13200
H916        H  0.74506066  0.07328688  0.27115917     0.13800
C917        C  0.40768130  0.81580480  0.44122039    -0.15800
C918        C  0.40197033  0.86577538  0.44562193    -0.31000
H919        H  0.42335940  0.80384836  0.40585467     0.13200
H920        H  0.38655773  0.87818375  0.48088465     0.13800
C921        C  0.59603882  0.89821779  0.42829329    -0.15800
C922        C  0.58775251  0.84800836  0.42935924    -0.31000
H923        H  0.61414776  0.91589602  0.45843974     0.13200
H924        H  0.56435973  0.83110668  0.40237260     0.13800
C925        C  0.38129843  0.14747997  0.40370884    -0.15800
C926        C  0.40311729  0.17585162  0.43742017    -0.31000
H927        H  0.34288393  0.15281274  0.39513781     0.13200
H928        H  0.44241623  0.17164740  0.44377042     0.13800
C929        C  0.49551995  0.24210555  0.22573669    -0.15800
C930        C  0.46974688  0.26522583  0.26150767    -0.31000
H931        H  0.51525643  0.26349138  0.19346985     0.13200
H932        H  0.45224972  0.24311739  0.29460238     0.13800
C933        C  0.45871428  0.74120044  0.23631131    -0.15800
C934        C  0.49246781  0.77243597  0.25539641    -0.31000
H935        H  0.42259201  0.75419721  0.22663570     0.13200
H936        H  0.52858799  0.75842506  0.26383796     0.13800
C937        C  0.63816881  0.08509841  0.06175355    -0.15800
C938        C  0.68850181  0.08831454  0.06729990    -0.31000
H939        H  0.62482971  0.09257221  0.02465052     0.13200
H940        H  0.70144038  0.08132552  0.10467481     0.13800
C941        C  0.60622271  0.89173865  0.10007645    -0.15800
C942        C  0.65348169  0.91213958  0.09493179    -0.31000
H943        H  0.59291358  0.86196350  0.07743250     0.13200
H944        H  0.66494494  0.94525846  0.11410551     0.13800
C945        C  0.35101945  0.88514902  0.11770090    -0.15800
C946        C  0.31216194  0.90956061  0.10100147    -0.31000
H947        H  0.35669964  0.84643958  0.10996195     0.13200
H948        H  0.30879361  0.94875093  0.10876087     0.13800
C949        C  0.31884351  0.08029321  0.07204535    -0.15800
C950        C  0.36088750  0.10426713  0.08700063    -0.31000
H951        H  0.31129325  0.03991196  0.08040803     0.13200
H952        H  0.36854965  0.14451024  0.07760453     0.13800
C953        C  0.73189756  0.27029663  0.48218356    -0.15800
C954        C  0.75479855  0.23128985  0.50335740    -0.31000
H955        H  0.75398059  0.30419934  0.46648419     0.13200
H956        H  0.73305001  0.19818638  0.52127619     0.13800
C957        C  0.58418013  0.17836606  0.41625861    -0.15800
C958        C  0.60974854  0.15178147  0.38380642    -0.31000
H959        H  0.54377928  0.17066991  0.42336614     0.13200
H960        H  0.64896412  0.16181662  0.37231585     0.13800
C961        C  0.25355243  0.98229260  0.76607848    -0.15800
C962        C  0.23235148  0.01763366  0.73769675    -0.31000
H963        H  0.23087855  0.94971671  0.78392105     0.13200
H964        H  0.25603160  0.04871934  0.71823917     0.13800
C965        C  0.72372922  0.02025691  0.72524873    -0.15800
C966        C  0.74676936  0.99580217  0.76226264    -0.31000
H967        H  0.74513725  0.04048480  0.69325015     0.13200
H968        H  0.72451815  0.97802225  0.79507820     0.13800
C969        C  0.37044199  0.11806191  0.59836845    -0.15800
C970        C  0.39003383  0.16573563  0.59213824    -0.31000
H971        H  0.33989952  0.10423999  0.57695123     0.13200
H972        H  0.42365344  0.17769856  0.61021502     0.13800
C973        C  0.57015607  0.20525403  0.56745692    -0.15800
C974        C  0.55915270  0.15544563  0.56124028    -0.31000
H975        H  0.56977431  0.21706616  0.60551842     0.13200
H976        H  0.56035503  0.14279806  0.52351360     0.13800
C977        C  0.55402847  0.82634874  0.58291133    -0.15800
C978        C  0.57743399  0.87229876  0.58706468    -0.31000
H979        H  0.51751848  0.81561625  0.60229446     0.13200
H980        H  0.61395489  0.88249590  0.56735971     0.13800
C981        C  0.36908314  0.85558269  0.62847538    -0.15800
C982        C  0.39327872  0.83291848  0.59179578    -0.31000
H983        H  0.33095195  0.84256175  0.64201385     0.13200
H984        H  0.43293509  0.84312628  0.58206546     0.13800
C985        C  0.47624121  0.23901901  0.75144851    -0.15800
C986        C  0.51430978  0.27130893  0.76119770    -0.31000
H987        H  0.43914354  0.25286907  0.74778213     0.13200
H988        H  0.55123323  0.25763255  0.76630259     0.13800
C989        C  0.49335403  0.76923298  0.77117283    -0.15800
C990        C  0.51276298  0.74798807  0.73081866    -0.31000
H991        H  0.47954048  0.74648157  0.80521939     0.13200
H992        H  0.52414399  0.77097664  0.69617182     0.13800
C993        C  0.37666394  0.10571609  0.92583041    -0.15800
C994        C  0.32980264  0.11653868  0.91629645    -0.31000
H995        H  0.38984567  0.10855732  0.96321490     0.13200
H996        H  0.31504468  0.11232118  0.87982506     0.13800
C997        C  0.30130369  0.92731054  0.94571134    -0.15800
C998        C  0.35149829  0.92349157  0.95065642    -0.31000
H999        H  0.28930160  0.94072331  0.90939489     0.13200
H1000       H  0.36403551  0.91002927  0.98673425     0.13800
C1001       C  0.64349410  0.91016440  0.89821630    -0.15800
C1002       C  0.66087106  0.92886555  0.93983314    -0.31000
H1003       H  0.66072385  0.87831711  0.88282406     0.13200
H1004       H  0.64684464  0.96333324  0.95296814     0.13800
C1005       C  0.66150434  0.10336096  0.91582150    -0.15800
C1006       C  0.63716170  0.12821335  0.88037466    -0.31000
H1007       H  0.65265530  0.06312546  0.92453219     0.13200
H1008       H  0.64873005  0.16711916  0.86775099     0.13800
loop_ 
_geom_bond_atom_site_label_1 
_geom_bond_atom_site_label_2 
_geom_bond_distance 
_geom_bond_site_symmetry_2 
_ccdc_geom_bond_type 
O1           C12   1.293       .  A
O1          Eu37   2.467       .  S
O2           C13   1.302       .  A
O2          Eu36   2.524       .  S
O3           C14   1.294       .  A
O3           Eu9   2.475       .  S
O4           C15   1.295       .  A
O4           Eu9   2.483       .  S
O5           C15   1.285       .  A
O5          Eu39   2.427       .  S
O6           C14   1.285   1_565  A
O6          Eu38   2.421       .  S
O7           C13   1.293       .  A
O7           Eu9   2.474       .  S
O8           C12   1.288       .  A
O8           Eu9   2.440       .  S
Eu9          O19   2.359       .  S
Eu9          O11   2.344       .  S
Eu9          O10   2.326       .  S
Eu9          O17   2.384       .  S
O10         Eu39   2.329       .  S
O10         Eu36   2.341       .  S
O11         Eu37   2.337       .  S
O11         Eu38   2.323   1_545  S
C12        C1006   1.465       .  S
C13         C974   1.509       .  S
C14         C965   1.461       .  S
C15         C985   1.471       .  S
H16          O17   0.965       .  S
O17         Eu38   2.376   1_545  S
O17         Eu36   2.357       .  S
H18          O19   0.965       .  S
O19         Eu37   2.368       .  S
O19         Eu39   2.355       .  S
O20          C43   1.295       .  A
O20         Eu36   2.474   1_565  S
O21          C44   1.301       .  A
O21         Eu37   2.518   1_565  S
O22          C45   1.290       .  A
O22         Eu38   2.459       .  S
O23          C46   1.284       .  A
O23         Eu39   2.415       .  S
O24          C47   1.285       .  A
O24         Eu39   2.407       .  S
O25          C48   1.287       .  A
O25         Eu38   2.435       .  S
O26          C49   1.288       .  A
O26         Eu40   2.446       .  S
O27          C50   1.287       .  A
O27         Eu40   2.446       .  S
O28          C49   1.285       .  A
O28         Eu38   2.427       .  S
O29          C50   1.291   1_545  A
O29         Eu39   2.453       .  S
O30          C45   1.288       .  A
O30         Eu36   2.450   1_565  S
O31          C48   1.297       .  A
O31         Eu37   2.493   1_565  S
O32          C47   1.289       .  A
O32         Eu37   2.447       .  S
O33          C46   1.283       .  A
O33         Eu36   2.420       .  S
O34          C43   1.286       .  A
O34         Eu40   2.431       .  S
O35          C44   1.293       .  A
O35         Eu40   2.481       .  S
Eu36         O54   2.360   1_545  S
Eu36         O42   2.338   1_545  S
Eu37         O41   2.344   1_545  S
Eu37         O52   2.367   1_545  S
Eu38         O52   2.385       .  S
Eu38         O42   2.305       .  S
Eu39         O41   2.323   1_545  S
Eu39         O54   2.335   1_545  S
Eu40         O41   2.313       .  S
Eu40         O52   2.377       .  S
Eu40         O54   2.363       .  S
Eu40         O42   2.345       .  S
C43         C981   1.461       .  S
C44         C998   1.506       .  S
C45         C978   1.464       .  S
C46         C969   1.434       .  S
C47         C993   1.458       .  S
C48        C1001   1.477       .  S
C49         C989   1.449       .  S
C50         C961   1.470       .  S
H51          O52   0.967       .  S
H53          O54   0.965       .  S
C55          C56   1.536       .  S
C55          C61   1.533       .  S
C55          C59   1.522       .  S
C55         C953   1.503       .  S
C56          H63   1.087       .  S
C56          C57   1.359       .  D
C57          C58   1.556       .  S
C57         C973   1.507       .  S
C58          C62   1.584       .  S
C58          C60   1.534       .  S
C58          H64   1.111       .  S
C59          H65   1.084       .  S
C59          C60   1.365       .  D
C60         C957   1.475       .  S
C61          H66   1.087       .  S
C61          C62   1.368       .  D
C62         C624   1.493       .  S
O67          C78   1.294       .  A
O67        Eu103   2.465       .  S
O68          C79   1.301       .  A
O68        Eu102   2.515       .  S
O69          C80   1.298       .  A
O69         Eu75   2.504       .  S
O70          C81   1.296       .  A
O70         Eu75   2.485       .  S
O71          C81   1.284       .  A
O71        Eu105   2.412       .  S
O72          C80   1.279   1_565  A
O72        Eu104   2.396       .  S
O73          C79   1.297       .  A
O73         Eu75   2.492       .  S
O74          C78   1.285       .  A
O74         Eu75   2.422       .  S
Eu75         O85   2.362       .  S
Eu75         O77   2.361       .  S
Eu75         O76   2.380       .  S
Eu75         O83   2.315       .  S
O76        Eu105   2.376       .  S
O76        Eu102   2.357       .  S
O77        Eu103   2.373       .  S
O77        Eu104   2.332   1_545  S
C78         C958   1.451       .  S
C79         C937   1.501       .  S
C80         C913   1.469   1_545  S
C81         C929   1.460       .  S
H82          O83   0.963       .  S
O83        Eu104   2.320   1_545  S
O83        Eu102   2.355       .  S
H84          O85   0.964       .  S
O85        Eu103   2.347       .  S
O85        Eu105   2.323       .  S
O86         C109   1.292       .  A
O86        Eu102   2.462   1_565  S
O87         C110   1.302       .  A
O87        Eu103   2.519   1_565  S
O88         C111   1.284       .  A
O88        Eu104   2.412       .  S
O89         C112   1.288       .  A
O89        Eu105   2.449       .  S
O90         C113   1.288       .  A
O90        Eu105   2.449       .  S
O91         C114   1.288       .  A
O91        Eu104   2.440       .  S
O92         C115   1.296       .  A
O92        Eu106   2.492       .  S
O93         C116   1.292   1_565  A
O93        Eu106   2.465       .  S
O94         C115   1.279       .  A
O94        Eu104   2.396       .  S
O95         C116   1.284       .  A
O95        Eu105   2.422       .  S
O96         C111   1.283       .  A
O96        Eu102   2.417   1_565  S
O97         C114   1.288       .  A
O97        Eu103   2.447   1_565  S
O98         C113   1.298       .  A
O98        Eu103   2.504       .  S
O99         C112   1.292       .  A
O99        Eu102   2.474       .  S
O100        C109   1.289       .  A
O100       Eu106   2.446       .  S
O101        C110   1.295       .  A
O101       Eu106   2.476       .  S
Eu102       O120   2.344   1_545  S
Eu102       O108   2.364   1_545  S
Eu103       O107   2.365       .  S
Eu103       O118   2.362   1_545  S
Eu104       O118   2.301       .  S
Eu104       O108   2.338       .  S
Eu105       O107   2.367       .  S
Eu105       O120   2.317   1_545  S
Eu106       O107   2.382   1_565  S
Eu106       O118   2.337       .  S
Eu106       O120   2.354       .  S
Eu106       O108   2.344       .  S
C109        C945   1.455       .  S
C110        C918   1.493       .  S
C111        C941   1.428       .  S
C112        C950   1.468       .  S
C113        C925   1.488       .  S
C114        C921   1.459       .  S
C115        C934   1.466       .  S
C116        C910   1.455       .  S
H117        O118   0.963       .  S
H119        O120   0.964       .  S
C121        C122   1.534   1_554  S
C121        C127   1.532       .  S
C121        C125   1.526       .  S
C121        C905   1.502       .  S
C122        H129   1.087       .  S
C122        C123   1.355       .  D
C123        C124   1.559   1_556  S
C123        C997   1.506       .  S
C124        C128   1.585       .  S
C124        C126   1.540       .  S
C124        H130   1.111       .  S
C125        H131   1.085       .  S
C125        C126   1.365       .  D
C126        C946   1.478       .  S
C127        H132   1.087       .  S
C127        C128   1.369       .  D
C128        C678   1.500       .  S
C133        C134   1.515       .  S
C133        C139   1.510       .  S
C133        C137   1.525   1_554  S
C133        C902   1.493       .  S
C134        H141   1.087       .  S
C134        C135   1.360       .  D
C135        C136   1.531       .  S
C135        C942   1.443       .  S
C136        C140   1.547       .  S
C136        C138   1.555   1_554  S
C136        H142   1.111       .  S
C137        H143   1.084       .  S
C137        C138   1.373       .  D
C138       C1002   1.497       .  S
C139        H144   1.087       .  S
C139        C140   1.373       .  D
C140        C715   1.484       .  S
C145        C146   1.537       .  S
C145        C151   1.514       .  S
C145        C149   1.518       .  S
C145        C897   1.511       .  S
C146        H153   1.086       .  S
C146        C147   1.368       .  D
C147        C148   1.534       .  S
C147        C922   1.458       .  S
C148        C152   1.547       .  S
C148        C150   1.554       .  S
C148        H154   1.111       .  S
C149        H155   1.087       .  S
C149        C150   1.366       .  D
C150        C977   1.484       .  S
C151        H156   1.087       .  S
C151        C152   1.375       .  D
C152        C661   1.496       .  S
C157        C158   1.523       .  S
C157        C163   1.509   1_554  S
C157        C161   1.527   1_554  S
C157        C893   1.504       .  S
C158        H165   1.086       .  S
C158        C159   1.370       .  D
C159        C160   1.554   1_554  S
C159        C949   1.492       .  S
C160        C164   1.553       .  S
C160        C162   1.535       .  S
C160        H166   1.111       .  S
C161        H167   1.087       .  S
C161        C162   1.362       .  D
C162        C994   1.444       .  S
C163        H168   1.087       .  S
C163        C164   1.372       .  D
C164        C681   1.497       .  S
C169        C170   1.527       .  S
C169        C175   1.534       .  S
C169        C173   1.534   1_556  S
C169        C889   1.504       .  S
C170        H177   1.085       .  S
C170        C171   1.366       .  D
C171        C172   1.539       .  S
C171       C1005   1.481       .  S
C172        C176   1.583       .  S
C172        C174   1.556   1_556  S
C172        H178   1.111       .  S
C173        H179   1.087       .  S
C173        C174   1.356       .  D
C174        C938   1.502       .  S
C175        H180   1.087       .  S
C175        C176   1.368       .  D
C176        C709   1.497       .  S
C181        C182   1.538       .  S
C181        C187   1.510       .  S
C181        C185   1.518       .  S
C181        C885   1.502       .  S
C182        H189   1.083       .  S
C182        C183   1.379       .  D
C183        C184   1.556       .  S
C183        C926   1.510       .  S
C184        C188   1.550       .  S
C184        C186   1.531       .  S
C184        H190   1.111       .  S
C185        H191   1.087       .  S
C185        C186   1.362       .  D
C186        C970   1.446       .  S
C187        H192   1.088       .  S
C187        C188   1.365       .  D
C188        C627   1.485       .  S
C193        C194   1.529       .  S
C193        C199   1.533       .  S
C193        C197   1.534       .  S
C193        C881   1.506       .  S
C194        H201   1.085       .  S
C194        C195   1.369       .  D
C195        C196   1.538       .  S
C195        C982   1.480       .  S
C196        C200   1.579       .  S
C196        C198   1.552       .  S
C196        H202   1.111       .  S
C197        H203   1.086       .  S
C197        C198   1.355       .  D
C198        C917   1.497       .  S
C199        H204   1.087       .  S
C199        C200   1.368       .  D
C200        C655   1.497       .  S
O205        C216   1.297       .  A
O205       Eu241   2.501       .  S
O206        C217   1.298   1_455  A
O206       Eu240   2.504       .  S
O207        C218   1.288       .  A
O207       Eu213   2.437       .  S
O208        C219   1.287       .  A
O208       Eu213   2.434       .  S
O209        C219   1.287       .  A
O209       Eu243   2.439       .  S
O210        C218   1.288       .  A
O210       Eu242   2.450       .  S
O211        C217   1.278       .  A
O211       Eu213   2.395       .  S
O212        C216   1.277       .  A
O212       Eu213   2.388       .  S
Eu213       O223   2.320       .  S
Eu213       O215   2.340       .  S
Eu213       O214   2.337       .  S
Eu213       O221   2.315       .  S
O214       Eu243   2.366       .  S
O214       Eu240   2.350   1_655  S
O215       Eu241   2.364       .  S
O215       Eu242   2.378       .  S
C216        C898   1.465       .  S
C217        C841   1.469       .  S
C218        C869   1.456       .  S
C219        C861   1.451       .  S
H220        O221   0.963       .  S
O221       Eu242   2.363       .  S
O221       Eu240   2.333   1_655  S
H222        O223   0.965       .  S
O223       Eu241   2.324       .  S
O223       Eu243   2.351       .  S
O224        C247   1.294       .  A
O224       Eu240   2.474       .  S
O225        C248   1.295       .  A
O225       Eu241   2.480       .  S
O226        C249   1.305       .  A
O226       Eu242   2.538   1_455  S
O227        C250   1.293       .  A
O227       Eu243   2.466   1_455  S
O228        C251   1.300       .  A
O228       Eu243   2.512       .  S
O229        C252   1.296       .  A
O229       Eu242   2.481       .  S
O230        C253   1.290       .  A
O230       Eu244   2.459       .  S
O231        C254   1.295       .  A
O231       Eu244   2.485       .  S
O232        C253   1.299       .  A
O232       Eu242   2.507   1_455  S
O233        C254   1.294       .  A
O233       Eu243   2.480   1_455  S
O234        C249   1.294       .  A
O234       Eu240   2.475       .  S
O235        C252   1.287       .  A
O235       Eu241   2.432       .  S
O236        C251   1.297       .  A
O236       Eu241   2.492       .  S
O237        C250   1.290       .  A
O237       Eu240   2.450       .  S
O238        C247   1.284       .  A
O238       Eu244   2.419       .  S
O239        C248   1.286   1_455  A
O239       Eu244   2.428       .  S
Eu240       O258   2.353       .  S
Eu240       O246   2.385       .  S
Eu241       O245   2.386       .  S
Eu241       O256   2.361       .  S
Eu242       O256   2.352       .  S
Eu242       O246   2.366   1_655  S
Eu243       O245   2.364       .  S
Eu243       O258   2.346   1_655  S
Eu244       O245   2.380   1_455  S
Eu244       O256   2.332   1_455  S
Eu244       O258   2.317       .  S
Eu244       O246   2.380       .  S
C247        C882   1.462       .  S
C248        C845   1.462       .  S
C249        C865   1.501       .  S
C250        C850   1.460       .  S
C251        C857   1.502       .  S
C252        C873   1.462       .  S
C253        C877   1.491       .  S
C254        C853   1.492       .  S
H255        O256   0.965       .  S
H257        O258   0.964       .  S
O259        C270   1.291       .  A
O259       Eu295   2.465       .  S
O260        C271   1.288   1_455  A
O260       Eu294   2.445       .  S
O261        C272   1.287       .  A
O261       Eu267   2.436       .  S
O262        C273   1.291       .  A
O262       Eu267   2.462       .  S
O263        C273   1.288       .  A
O263       Eu297   2.447       .  S
O264        C272   1.292       .  A
O264       Eu296   2.463       .  S
O265        C271   1.286       .  A
O265       Eu267   2.424       .  S
O266        C270   1.286       .  A
O266       Eu267   2.425       .  S
Eu267       O277   2.379       .  S
Eu267       O269   2.313       .  S
Eu267       O268   2.309       .  S
Eu267       O275   2.383       .  S
O268       Eu297   2.338       .  S
O268       Eu294   2.339   1_655  S
O269       Eu295   2.325       .  S
O269       Eu296   2.328       .  S
C270        C954   1.457       .  S
C271        C801   1.450       .  S
C272        C809   1.467       .  S
C273        C834   1.466       .  S
H274        O275   0.967       .  S
O275       Eu296   2.364       .  S
O275       Eu294   2.370   1_655  S
H276        O277   0.964       .  S
O277       Eu295   2.371       .  S
O277       Eu297   2.357       .  S
O278        C301   1.284       .  A
O278       Eu294   2.429       .  S
O279        C302   1.287       .  A
O279       Eu295   2.442       .  S
O280        C303   1.300       .  A
O280       Eu296   2.514   1_455  S
O281        C304   1.293       .  A
O281       Eu297   2.466   1_455  S
O282        C305   1.298       .  A
O282       Eu297   2.510       .  S
O283        C306   1.292       .  A
O283       Eu296   2.459       .  S
O284        C307   1.286       .  A
O284       Eu298   2.419       .  S
O285        C308   1.284       .  A
O285       Eu298   2.413       .  S
O286        C307   1.284       .  A
O286       Eu296   2.425   1_455  S
O287        C308   1.285       .  A
O287       Eu297   2.426   1_455  S
O288        C303   1.291       .  A
O288       Eu294   2.472       .  S
O289        C306   1.284       .  A
O289       Eu295   2.422       .  S
O290        C305   1.290       .  A
O290       Eu295   2.458       .  S
O291        C304   1.287       .  A
O291       Eu294   2.439       .  S
O292        C301   1.294       .  A
O292       Eu298   2.469       .  S
O293        C302   1.292   1_455  A
O293       Eu298   2.464       .  S
Eu294       O312   2.358       .  S
Eu294       O300   2.320       .  S
Eu295       O299   2.317       .  S
Eu295       O310   2.366       .  S
Eu296       O310   2.366       .  S
Eu296       O300   2.339   1_655  S
Eu297       O299   2.332       .  S
Eu297       O312   2.357   1_655  S
Eu298       O299   2.331   1_455  S
Eu298       O310   2.354   1_455  S
Eu298       O312   2.348       .  S
Eu298       O300   2.326       .  S
C301        C886   1.464       .  S
C302        C806   1.467       .  S
C303        C821   1.499       .  S
C304        C837   1.462       .  S
C305        C830   1.498       .  S
C306        C813   1.455       .  S
C307        C817   1.439       .  S
C308        C826   1.434       .  S
H309        O310   0.966       .  S
H311        O312   0.965       .  S
C313        C314   1.525       .  S
C313        C319   1.537       .  S
C313        C317   1.535       .  S
C313        C797   1.507       .  S
C314        H321   1.085       .  S
C314        C315   1.365       .  D
C315        C316   1.533       .  S
C315        C814   1.475       .  S
C316        C320   1.580       .  S
C316        C318   1.556       .  S
C316        H322   1.111       .  S
C317        H323   1.087       .  S
C317        C318   1.356       .  D
C318        C858   1.503       .  S
C319        H324   1.087       .  S
C319        C320   1.371       .  D
C320        C626   1.495       .  S
C325        C326   1.529       .  S
C325        C331   1.517       .  S
C325        C329   1.522       .  S
C325        C793   1.498       .  S
C326        H333   1.087       .  S
C326        C327   1.363       .  D
C327        C328   1.561       .  S
C327        C854   1.493       .  S
C328        C332   1.559       .  S
C328        C330   1.529       .  S
C328        H334   1.111       .  S
C329        H335   1.087       .  S
C329        C330   1.365       .  D
C330        C818   1.448       .  S
C331        H336   1.088       .  S
C331        C332   1.369       .  D
C332        C658   1.494       .  S
C337        C338   1.533   1_545  S
C337        C343   1.520       .  S
C337        C341   1.522       .  S
C337        C914   1.511       .  S
C338        H345   1.086       .  S
C338        C339   1.368       .  D
C339        C340   1.536   1_565  S
C339        C870   1.460       .  S
C340        C344   1.547       .  S
C340        C342   1.552       .  S
C340        H346   1.111       .  S
C341        H347   1.087       .  S
C341        C342   1.364       .  D
C342        C833   1.475       .  S
C343        H348   1.087       .  S
C343        C344   1.374       .  D
C344        C710   1.496   1_545  S
C349        C350   1.533   1_565  S
C349        C355   1.535       .  S
C349        C353   1.527       .  S
C349        C966   1.505       .  S
C350        H357   1.087       .  S
C350        C351   1.357       .  D
C351        C352   1.554   1_545  S
C351        C829   1.498       .  S
C352        C356   1.581       .  S
C352        C354   1.539       .  S
C352        H358   1.111       .  S
C353        H359   1.084       .  S
C353        C354   1.367       .  D
C354        C874   1.484       .  S
C355        H360   1.087       .  S
C355        C356   1.369       .  D
C356        C711   1.498       .  S
C361        C362   1.528       .  S
C361        C367   1.511       .  S
C361        C365   1.510       .  S
C361        C789   1.496       .  S
C362        H369   1.087       .  S
C362        C363   1.365       .  D
C363        C364   1.536       .  S
C363        C862   1.453       .  S
C364        C368   1.546       .  S
C364        C366   1.556       .  S
C364        H370   1.111       .  S
C365        H371   1.085       .  S
C365        C366   1.369       .  D
C366        C810   1.488       .  S
C367        H372   1.087       .  S
C367        C368   1.370       .  D
C368        C660   1.488       .  S
C373        C374   1.539       .  S
C373        C379   1.532       .  S
C373        C377   1.529       .  S
C373        C785   1.511       .  S
C374        H381   1.082       .  S
C374        C375   1.357       .  D
C375        C376   1.557       .  S
C375        C822   1.502       .  S
C376        C380   1.575       .  S
C376        C378   1.540       .  S
C376        H382   1.111       .  S
C377        H383   1.087       .  S
C377        C378   1.365       .  D
C378        C849   1.476       .  S
C379        H384   1.087       .  S
C379        C380   1.366       .  D
C380        C662   1.494       .  S
C385        C386   1.527       .  S
C385        C391   1.530       .  S
C385        C389   1.537   1_545  S
C385        C909   1.503       .  S
C386        H393   1.085       .  S
C386        C387   1.367       .  D
C387        C388   1.541       .  S
C387        C838   1.482       .  S
C388        C392   1.586       .  S
C388        C390   1.554   1_545  S
C388        H394   1.110       .  S
C389        H395   1.087       .  S
C389        C390   1.355       .  D
C390        C866   1.503       .  S
C391        H396   1.087       .  S
C391        C392   1.367       .  D
C392        C713   1.498       .  S
C397        C398   1.532   1_545  S
C397        C403   1.508       .  S
C397        C401   1.522       .  S
C397        C962   1.504       .  S
C398        H405   1.082       .  S
C398        C399   1.377       .  D
C399        C400   1.563   1_565  S
C399        C878   1.513       .  S
C400        C404   1.552       .  S
C400        C402   1.529       .  S
C400        H406   1.111       .  S
C401        H407   1.087       .  S
C401        C402   1.362       .  D
C402        C825   1.445       .  S
C403        H408   1.088       .  S
C403        C404   1.370       .  D
C404        C679   1.492       .  S
O409        C420   1.285       .  A
O409       Eu445   2.435       .  S
O410        C421   1.294       .  A
O410       Eu444   2.472       .  S
O411        C422   1.287       .  A
O411       Eu417   2.439       .  S
O412        C423   1.284       .  A
O412       Eu417   2.422       .  S
O413        C423   1.294       .  A
O413       Eu447   2.474       .  S
O414        C422   1.290       .  A
O414       Eu446   2.464   1_554  S
O415        C421   1.277       .  A
O415       Eu417   2.383       .  S
O416        C420   1.287   1_554  A
O416       Eu417   2.428       .  S
Eu417       O427   2.312   1_554  S
Eu417       O419   2.330   1_554  S
Eu417       O418   2.355       .  S
Eu417       O425   2.315       .  S
O418       Eu447   2.362       .  S
O418       Eu444   2.361       .  S
O419       Eu445   2.371       .  S
O419       Eu446   2.366       .  S
C420        C901   1.463       .  S
C421        C790   1.449       .  S
C422        C757   1.465       .  S
C423        C782   1.460       .  S
H424        O425   0.963       .  S
O425       Eu446   2.331   1_554  S
O425       Eu444   2.331       .  S
H426        O427   0.963       .  S
O427       Eu445   2.335       .  S
O427       Eu447   2.346   1_556  S
O428        C451   1.296       .  A
O428       Eu444   2.487       .  S
O429        C452   1.291       .  A
O429       Eu445   2.463       .  S
O430        C453   1.301       .  A
O430       Eu446   2.521   1_554  S
O431        C454   1.294       .  A
O431       Eu447   2.470       .  S
O432        C455   1.297       .  A
O432       Eu447   2.496   1_556  S
O433        C456   1.288       .  A
O433       Eu446   2.444       .  S
O434        C457   1.292       .  A
O434       Eu448   2.468       .  S
O435        C458   1.298       .  A
O435       Eu448   2.503       .  S
O436        C457   1.293       .  A
O436       Eu446   2.469       .  S
O437        C458   1.295       .  A
O437       Eu447   2.479   1_556  S
O438        C453   1.296       .  A
O438       Eu444   2.491       .  S
O439        C456   1.290       .  A
O439       Eu445   2.453       .  S
O440        C455   1.296       .  A
O440       Eu445   2.489       .  S
O441        C454   1.290       .  A
O441       Eu444   2.448       .  S
O442        C451   1.283   1_556  A
O442       Eu448   2.404       .  S
O443        C452   1.285       .  A
O443       Eu448   2.428       .  S
Eu444       O462   2.349       .  S
Eu444       O450   2.371       .  S
Eu445       O449   2.369       .  S
Eu445       O460   2.342       .  S
Eu446       O460   2.364       .  S
Eu446       O450   2.369   1_556  S
Eu447       O449   2.375   1_554  S
Eu447       O462   2.351       .  S
Eu448       O449   2.375       .  S
Eu448       O460   2.326       .  S
Eu448       O462   2.320   1_556  S
Eu448       O450   2.389   1_556  S
C451        C890   1.461       .  S
C452        C798   1.458       .  S
C453        C753   1.503       .  S
C454        C770   1.462       .  S
C455        C777   1.493       .  S
C456        C761   1.451       .  S
C457        C765   1.470       .  S
C458        C773   1.498       .  S
H459        O460   0.965       .  S
H461        O462   0.964       .  S
O463        C474   1.291   1_556  A
O463       Eu499   2.461       .  S
O464        C475   1.293       .  A
O464       Eu498   2.472       .  S
O465        C476   1.290       .  A
O465       Eu471   2.460       .  S
O466        C477   1.293       .  A
O466       Eu471   2.465       .  S
O467        C477   1.290       .  A
O467       Eu501   2.455   1_554  S
O468        C476   1.290       .  A
O468       Eu500   2.457   1_554  S
O469        C475   1.285       .  A
O469       Eu471   2.417       .  S
O470        C474   1.284       .  A
O470       Eu471   2.417       .  S
Eu471       O481   2.384   1_554  S
Eu471       O473   2.315   1_554  S
Eu471       O472   2.307       .  S
Eu471       O479   2.378       .  S
O472       Eu501   2.335   1_554  S
O472       Eu498   2.327       .  S
O473       Eu499   2.337       .  S
O473       Eu500   2.336       .  S
C474        C906   1.451       .  S
C475        C786   1.470       .  S
C476        C730   1.468       .  S
C477        C745   1.477       .  S
H478        O479   0.966       .  S
O479       Eu500   2.365   1_554  S
O479       Eu498   2.382       .  S
H480        O481   0.964       .  S
O481       Eu499   2.365       .  S
O481       Eu501   2.366       .  S
O482        C505   1.293   1_554  A
O482       Eu498   2.465       .  S
O483        C506   1.286       .  A
O483       Eu499   2.440       .  S
O484        C507   1.301       .  A
O484       Eu500   2.518   1_554  S
O485        C508   1.291       .  A
O485       Eu501   2.460   1_554  S
O486        C509   1.296       .  A
O486       Eu501   2.499       .  S
O487        C510   1.294       .  A
O487       Eu500   2.472       .  S
O488        C511   1.286       .  A
O488       Eu502   2.427       .  S
O489        C512   1.282       .  A
O489       Eu502   2.413       .  S
O490        C511   1.283       .  A
O490       Eu500   2.421       .  S
O491        C512   1.290       .  A
O491       Eu501   2.441       .  S
O492        C507   1.293       .  A
O492       Eu498   2.472       .  S
O493        C510   1.286       .  A
O493       Eu499   2.432       .  S
O494        C509   1.292       .  A
O494       Eu499   2.474       .  S
O495        C508   1.289       .  A
O495       Eu498   2.445       .  S
O496        C505   1.285       .  A
O496       Eu502   2.428       .  S
O497        C506   1.289       .  A
O497       Eu502   2.443       .  S
Eu498       O516   2.364   1_554  S
Eu498       O504   2.328   1_554  S
Eu499       O503   2.328       .  S
Eu499       O514   2.368       .  S
Eu500       O514   2.366       .  S
Eu500       O504   2.338       .  S
Eu501       O503   2.335       .  S
Eu501       O516   2.355       .  S
Eu502       O503   2.337       .  S
Eu502       O514   2.340       .  S
Eu502       O516   2.354       .  S
Eu502       O504   2.323       .  S
C505        C894   1.461       .  S
C506        C794   1.460       .  S
C507        C725   1.502       .  S
C508        C750   1.460       .  S
C509        C741   1.489       .  S
C510        C734   1.464       .  S
C511        C721   1.441       .  S
C512        C738   1.446       .  S
H513        O514   0.965       .  S
H515        O516   0.965       .  S
C517        C518   1.530       .  S
C517        C523   1.536       .  S
C517        C521   1.534   1_455  S
C517        C846   1.508       .  S
C518        H525   1.085       .  S
C518        C519   1.366       .  D
C519        C520   1.534       .  S
C519        C733   1.479       .  S
C520        C524   1.579       .  S
C520        C522   1.554   1_455  S
C520        H526   1.110       .  S
C521        H527   1.087       .  S
C521        C522   1.357       .  D
C522        C778   1.498       .  S
C523        H528   1.087       .  S
C523        C524   1.370       .  D
C524        C680   1.495       .  S
C529        C530   1.535   1_455  S
C529        C535   1.517       .  S
C529        C533   1.523       .  S
C529        C805   1.507       .  S
C530        H537   1.087       .  S
C530        C531   1.366       .  D
C531        C532   1.560       .  S
C531        C774   1.499       .  S
C532        C536   1.562   1_655  S
C532        C534   1.532   1_655  S
C532        H538   1.110       .  S
C533        H539   1.087       .  S
C533        C534   1.367       .  D
C534        C722   1.455       .  S
C535        H540   1.088       .  S
C535        C536   1.368       .  D
C536        C712   1.496       .  S
C541        C542   1.534       .  S
C541        C547   1.525       .  S
C541        C545   1.526       .  S
C541        C990   1.496       .  S
C542        H549   1.087       .  S
C542        C543   1.360       .  D
C543        C544   1.556       .  S
C543        C742   1.510       .  S
C544        C548   1.571       .  S
C544        C546   1.535       .  S
C544        H550   1.111       .  S
C545        H551   1.087       .  S
C545        C546   1.363       .  D
C546        C762   1.467       .  S
C547        H552   1.087       .  S
C547        C548   1.365       .  D
C548        C657   1.475       .  S
C553        C554   1.536       .  S
C553        C559   1.518       .  S
C553        C557   1.521       .  S
C553        C933   1.514       .  S
C554        H561   1.086       .  S
C554        C555   1.369       .  D
C555        C556   1.541       .  S
C555        C758   1.468       .  S
C556        C560   1.550       .  S
C556        C558   1.554       .  S
C556        H562   1.111       .  S
C557        H563   1.087       .  S
C557        C558   1.362       .  D
C558        C746   1.473       .  S
C559        H564   1.087       .  S
C559        C560   1.372       .  D
C560        C656   1.499       .  S
C565        C566   1.535   1_655  S
C565        C571   1.529       .  S
C565        C569   1.522       .  S
C565        C802   1.495       .  S
C566        H573   1.087       .  S
C566        C567   1.357       .  D
C567        C568   1.556   1_455  S
C567        C726   1.502       .  S
C568        C572   1.587       .  S
C568        C570   1.546       .  S
C568        H574   1.110       .  S
C569        H575   1.084       .  S
C569        C570   1.364       .  D
C570        C769   1.485       .  S
C571        H576   1.087       .  S
C571        C572   1.366       .  D
C572        C716   1.498       .  S
C577        C578   1.537   1_455  S
C577        C583   1.510   1_455  S
C577        C581   1.522       .  S
C577        C842   1.512       .  S
C578        H585   1.085       .  S
C578        C579   1.376       .  D
C579        C580   1.539       .  S
C579        C781   1.475       .  S
C580        C584   1.560       .  S
C580        C582   1.552   1_655  S
C580        H586   1.110       .  S
C581        H587   1.086       .  S
C581        C582   1.365       .  D
C582        C729   1.498       .  S
C583        H588   1.088       .  S
C583        C584   1.370       .  D
C584        C714   1.499       .  S
C589        C590   1.527       .  S
C589        C595   1.512       .  S
C589        C593   1.530       .  S
C589        C986   1.510       .  S
C590        H597   1.087       .  S
C590        C591   1.367       .  D
C591        C592   1.551       .  S
C591        C766   1.492       .  S
C592        C596   1.554       .  S
C592        C594   1.532       .  S
C592        H598   1.111       .  S
C593        H599   1.086       .  S
C593        C594   1.372       .  D
C594        C737   1.458       .  S
C595        H600   1.087       .  S
C595        C596   1.372       .  D
C596        C625   1.498       .  S
C601        C602   1.525       .  S
C601        C607   1.534       .  S
C601        C605   1.535       .  S
C601        C930   1.506       .  S
C602        H609   1.086       .  S
C602        C603   1.364       .  D
C603        C604   1.544       .  S
C603        C749   1.477       .  S
C604        C608   1.583       .  S
C604        C606   1.559       .  S
C604        H610   1.111       .  S
C605        H611   1.086       .  S
C605        C606   1.357       .  D
C606        C754   1.506       .  S
C607        H612   1.087       .  S
C607        C608   1.368       .  D
C608        C659   1.501       .  S
O613        C624   1.321       .  A
O613       Eu649   2.624       .  S
O614        C625   1.308       .  A
O614       Eu648   2.575       .  S
O615        C626   1.319       .  A
O615       Eu621   2.617       .  S
O616        C627   1.303       .  A
O616       Eu621   2.545       .  S
O617        C627   1.278       .  A
O617       Eu651   2.368       .  S
O618        C626   1.270       .  A
O618       Eu650   2.349       .  S
O619        C625   1.275       .  A
O619       Eu621   2.350       .  S
O620        C624   1.270       .  A
O620       Eu621   2.341       .  S
Eu621       O631   2.365       .  S
Eu621       O623   2.333       .  S
Eu621       O622   2.380       .  S
Eu621       O629   2.331       .  S
O622       Eu651   2.385       .  S
O622       Eu648   2.382       .  S
O623       Eu649   2.342       .  S
O623       Eu650   2.344       .  S
H628        O629   0.964       .  S
O629       Eu650   2.323       .  S
O629       Eu648   2.358       .  S
H630        O631   0.966       .  S
O631       Eu649   2.332       .  S
O631       Eu651   2.349       .  S
O632        C655   1.318       .  A
O632       Eu648   2.613       .  S
O633        C656   1.306       .  A
O633       Eu649   2.565       .  S
O634        C657   1.311       .  A
O634       Eu650   2.575       .  S
O635        C658   1.308       .  A
O635       Eu651   2.570       .  S
O636        C659   1.321       .  A
O636       Eu651   2.627       .  S
O637        C660   1.300       .  A
O637       Eu650   2.540       .  S
O638        C661   1.306       .  A
O638       Eu652   2.571       .  S
O639        C662   1.319       .  A
O639       Eu652   2.615       .  S
O640        C661   1.271       .  A
O640       Eu650   2.329       .  S
O641        C662   1.274       .  A
O641       Eu651   2.361       .  S
O642        C657   1.274       .  A
O642       Eu648   2.360       .  S
O643        C660   1.275       .  A
O643       Eu649   2.353       .  S
O644        C659   1.273       .  A
O644       Eu649   2.360       .  S
O645        C658   1.280       .  A
O645       Eu648   2.377       .  S
O646        C655   1.274       .  A
O646       Eu652   2.365       .  S
O647        C656   1.276       .  A
O647       Eu652   2.356       .  S
Eu648       O666   2.347       .  S
Eu648       O654   2.336       .  S
Eu649       O653   2.356       .  S
Eu649       O664   2.383       .  S
Eu650       O664   2.371       .  S
Eu650       O654   2.347       .  S
Eu651       O653   2.328       .  S
Eu651       O666   2.363       .  S
Eu652       O653   2.345       .  S
Eu652       O664   2.384       .  S
Eu652       O666   2.324       .  S
Eu652       O654   2.347       .  S
H663        O664   0.966       .  S
H665        O666   0.965       .  S
O667        C678   1.319       .  A
O667       Eu703   2.620       .  S
O668        C679   1.307       .  A
O668       Eu702   2.572   1_455  S
O669        C680   1.319       .  A
O669       Eu675   2.619       .  S
O670        C681   1.306       .  A
O670       Eu675   2.568   1_545  S
O671        C681   1.275   1_554  A
O671       Eu705   2.351       .  S
O672        C680   1.272   1_655  A
O672       Eu704   2.350       .  S
O673        C679   1.275       .  A
O673       Eu675   2.352   1_545  S
O674        C678   1.274   1_556  A
O674       Eu675   2.369       .  S
Eu675       O685   2.361   1_566  S
Eu675       O677   2.330   1_556  S
Eu675       O676   2.391   1_565  S
Eu675       O683   2.351   1_455  S
O676       Eu705   2.383   1_556  S
O676       Eu702   2.384   1_455  S
O677       Eu703   2.350       .  S
O677       Eu704   2.358   1_454  S
H682        O683   0.965       .  S
O683       Eu704   2.324       .  S
O683       Eu702   2.366   1_565  S
H684        O685   0.965       .  S
O685       Eu703   2.323   1_545  S
O685       Eu705   2.349       .  S
O686        C709   1.320       .  A
O686       Eu702   2.624       .  S
O687        C710   1.308       .  A
O687       Eu703   2.575   1_655  S
O688        C711   1.320       .  A
O688       Eu704   2.622       .  S
O689        C712   1.308       .  A
O689       Eu705   2.571   1_556  S
O690        C713   1.321       .  A
O690       Eu705   2.623       .  S
O691        C714   1.307       .  A
O691       Eu704   2.572   1_554  S
O692        C715   1.305       .  A
O692       Eu706   2.554   1_565  S
O693        C716   1.320       .  A
O693       Eu706   2.625       .  S
O694        C715   1.273   1_556  A
O694       Eu704   2.342       .  S
O695        C716   1.273       .  A
O695       Eu705   2.360   1_655  S
O696        C711   1.273   1_545  A
O696       Eu702   2.359       .  S
O697        C714   1.276       .  A
O697       Eu703   2.351   1_655  S
O698        C713   1.273       .  A
O698       Eu703   2.357   1_545  S
O699        C712   1.280   1_655  A
O699       Eu702   2.381       .  S
O700        C709   1.271   1_554  A
O700       Eu706   2.348       .  S
O701        C710   1.274   1_545  A
O701       Eu706   2.346       .  S
Eu702       O720   2.345       .  S
Eu702       O708   2.336       .  S
Eu703       O707   2.357   1_465  S
Eu703       O718   2.377   1_455  S
Eu704       O718   2.385   1_556  S
Eu704       O708   2.344   1_565  S
Eu705       O707   2.330   1_455  S
Eu705       O720   2.355   1_454  S
Eu706       O707   2.340       .  S
Eu706       O718   2.381   1_545  S
Eu706       O720   2.324   1_554  S
Eu706       O708   2.355   1_554  S
H717        O718   0.965       .  S
H719        O720   0.965       .  S
C721        H723   1.086       .  S
C721        C722   1.337       .  D
C722        H724   1.088       .  S
C725        H727   1.086       .  S
C725        C726   1.361       .  D
C726        H728   1.086       .  S
C729        H731   1.085       .  S
C729        C730   1.357       .  D
C730        H732   1.083       .  S
C733        H735   1.086       .  S
C733        C734   1.339       .  D
C734        H736   1.085       .  S
C737        H739   1.088       .  S
C737        C738   1.332       .  D
C738        H740   1.086       .  S
C741        H743   1.086       .  S
C741        C742   1.364       .  D
C742        H744   1.085       .  S
C745        H747   1.086       .  S
C745        C746   1.346       .  D
C746        H748   1.087       .  S
C749        H751   1.087       .  S
C749        C750   1.346       .  D
C750        H752   1.086       .  S
C753        H755   1.086       .  S
C753        C754   1.364       .  D
C754        H756   1.086       .  S
C757        H759   1.086       .  S
C757        C758   1.342       .  D
C758        H760   1.087       .  S
C761        H763   1.086       .  S
C761        C762   1.340       .  D
C762        H764   1.087       .  S
C765        H767   1.086       .  S
C765        C766   1.355       .  D
C766        H768   1.086       .  S
C769        H771   1.087       .  S
C769        C770   1.348       .  D
C770        H772   1.083       .  S
C773        H775   1.086       .  S
C773        C774   1.354       .  D
C774        H776   1.086       .  S
C777        H779   1.085       .  S
C777        C778   1.359       .  D
C778        H780   1.086       .  S
C781        H783   1.088       .  S
C781        C782   1.337       .  D
C782        H784   1.085       .  S
C785        H787   1.087       .  S
C785        C786   1.353       .  D
C786        H788   1.080       .  S
C789        H791   1.088       .  S
C789        C790   1.331       .  D
C790        H792   1.088       .  S
C793        H795   1.088       .  S
C793        C794   1.340       .  D
C794        H796   1.087       .  S
C797        H799   1.087       .  S
C797        C798   1.351       .  D
C798        H800   1.086       .  S
C801        H803   1.086   1_655  S
C801        C802   1.343       .  D
C802        H804   1.086       .  S
C805        H807   1.087       .  S
C805        C806   1.341   1_455  D
C806        H808   1.087       .  S
C809        H811   1.086       .  S
C809        C810   1.346       .  D
C810        H812   1.086       .  S
C813        H815   1.084       .  S
C813        C814   1.340       .  D
C814        H816   1.087       .  S
C817        H819   1.087       .  S
C817        C818   1.334       .  D
C818        H820   1.088       .  S
C821        H823   1.086       .  S
C821        C822   1.363       .  D
C822        H824   1.086       .  S
C825        H827   1.088       .  S
C825        C826   1.334       .  D
C826        H828   1.087       .  S
C829        H831   1.087       .  S
C829        C830   1.359       .  D
C830        H832   1.085       .  S
C833        H835   1.085       .  S
C833        C834   1.346       .  D
C834        H836   1.086       .  S
C837        H839   1.084       .  S
C837        C838   1.343       .  D
C838        H840   1.087       .  S
C841        H843   1.088       .  S
C841        C842   1.334   1_655  D
C842        H844   1.087       .  S
C845        H847   1.086       .  S
C845        C846   1.351   1_655  D
C846        H848   1.087       .  S
C849        H851   1.087       .  S
C849        C850   1.345       .  D
C850        H852   1.086       .  S
C853        H855   1.085       .  S
C853        C854   1.353       .  D
C854        H856   1.085       .  S
C857        H859   1.086       .  S
C857        C858   1.361       .  D
C858        H860   1.086       .  S
C861        H863   1.088       .  S
C861        C862   1.336       .  D
C862        H864   1.087       .  S
C865        H867   1.086       .  S
C865        C866   1.364       .  D
C866        H868   1.086       .  S
C869        H871   1.086       .  S
C869        C870   1.339       .  D
C870        H872   1.088       .  S
C873        H875   1.084       .  S
C873        C874   1.343       .  D
C874        H876   1.087       .  S
C877        H879   1.082       .  S
C877        C878   1.357       .  D
C878        H880   1.086       .  S
C881        H883   1.086       .  S
C881        C882   1.350       .  D
C882        H884   1.085       .  S
C885        H887   1.088       .  S
C885        C886   1.340       .  D
C886        H888   1.087       .  S
C889        H891   1.088       .  S
C889        C890   1.351   1_556  D
C890        H892   1.086       .  S
C893        H895   1.087       .  S
C893        C894   1.340   1_554  D
C894        H896   1.088       .  S
C897        H899   1.087       .  S
C897        C898   1.333       .  D
C898        H900   1.089       .  S
C901        H903   1.087       .  S
C901        C902   1.340   1_556  D
C902        H904   1.088       .  S
C905        H907   1.088       .  S
C905        C906   1.348       .  D
C906        H908   1.086   1_554  S
C909        H911   1.088       .  S
C909        C910   1.347       .  D
C910        H912   1.086   1_545  S
C913        H915   1.088       .  S
C913        C914   1.335   1_565  D
C914        H916   1.087       .  S
C917        H919   1.086       .  S
C917        C918   1.361       .  D
C918        H920   1.086       .  S
C921        H923   1.087       .  S
C921        C922   1.338       .  D
C922        H924   1.088       .  S
C925        H927   1.082       .  S
C925        C926   1.353       .  D
C926        H928   1.086       .  S
C929        H931   1.085       .  S
C929        C930   1.349       .  D
C930        H932   1.088       .  S
C933        H935   1.087       .  S
C933        C934   1.337       .  D
C934        H936   1.088       .  S
C937        H939   1.085       .  S
C937        C938   1.360       .  D
C938        H940   1.086       .  S
C941        H943   1.087       .  S
C941        C942   1.336       .  D
C942        H944   1.088       .  S
C945        H947   1.084       .  S
C945        C946   1.344       .  D
C946        H948   1.086       .  S
C949        H951   1.085       .  S
C949        C950   1.353       .  D
C950        H952   1.086       .  S
C953        H955   1.088       .  S
C953        C954   1.348       .  D
C954        H956   1.086       .  S
C957        H959   1.087       .  S
C957        C958   1.339       .  D
C958        H960   1.083       .  S
C961        H963   1.087       .  S
C961        C962   1.343   1_565  D
C962        H964   1.088       .  S
C965        H967   1.086       .  S
C965        C966   1.350   1_545  D
C966        H968   1.088       .  S
C969        H971   1.087       .  S
C969        C970   1.336       .  D
C970        H972   1.088       .  S
C973        H975   1.086       .  S
C973        C974   1.363       .  D
C974        H976   1.085       .  S
C977        H979   1.085       .  S
C977        C978   1.352       .  D
C978        H980   1.087       .  S
C981        H983   1.085       .  S
C981        C982   1.340       .  D
C982        H984   1.086       .  S
C985        H987   1.088       .  S
C985        C986   1.339       .  D
C986        H988   1.087       .  S
C989        H991   1.086       .  S
C989        C990   1.344       .  D
C990        H992   1.088       .  S
C993        H995   1.087       .  S
C993        C994   1.339       .  D
C994        H996   1.086       .  S
C997        H999   1.086       .  S
C997        C998   1.366       .  D
C998       H1000   1.086       .  S
C1001      H1003   1.084       .  S
C1001      C1002   1.349       .  D
C1002      H1004   1.086       .  S
C1005      H1007   1.087       .  S
C1005      C1006   1.344       .  D
C1006      H1008   1.085       .  S
