geometry optimzed in LAMMPS
_audit_creation_date              2020-11-30 
_audit_creation_method            'lammps2cif' 
_symmetry_space_group_name_H-M    'P1' 
_symmetry_Int_Tables_number       1 
_symmetry_cell_setting            triclinic 
loop_ 
_symmetry_equiv_pos_as_xyz 
  x,y,z 
_cell_length_a                    42.69385527 
_cell_length_b                    26.570020469726245 
_cell_length_c                    42.68179840567474 
_cell_angle_alpha                 90.11501572891393 
_cell_angle_beta                  90.14355980552602 
_cell_angle_gamma                 90.14132771907103 
loop_ 
_atom_site_label 
_atom_site_type_symbol 
_atom_site_fract_x 
_atom_site_fract_y 
_atom_site_fract_z 
_atom_site_charge 
C1          C  0.05982819  0.89089028  0.07336848     0.42300
N2          N  0.05052403  0.95026304  0.04075978     0.01200
C3          C  0.41868919  0.10122078  0.03343250    -0.06600
H4          H  0.39765081  0.90852242  0.01689764     0.06700
C5          C  0.46267594  0.91497112  0.42015114    -0.07000
Co6        Co  0.49250553  0.00695919  0.05744206     0.74200
N7          N  0.43755327  0.95396001  0.02959335    -0.26200
Co8        Co  0.44081750  0.00865313  0.49480497     0.74100
C9          C  0.43242103  0.89329942  0.42885839     0.42400
N10         N  0.03713305  0.94888526  0.44747670     0.00900
N11         N  0.44350997  0.95356709  0.46032434     0.01000
N12         N  0.45213865  0.09830183  0.07460865    -0.47000
H13         H  0.01510745  0.90857270  0.10149587     0.06700
N14         N  0.45733231  0.95270775  0.05338878     0.01200
N15         N  0.44560835  0.06287723  0.45981951     0.01000
C16         C  0.43609971  0.12137480  0.42654663     0.42600
N17         N  0.05678739  0.94892337  0.47138121    -0.25600
C18         C  0.03120297  0.09976556  0.07910353    -0.06500
N19         N  0.07095789  0.91453894  0.04770769    -0.46700
N20         N  0.42507111  0.09822882  0.45246034    -0.47000
C21         C  0.06048046  0.12382129  0.06964539     0.42400
N22         N  0.45842036  0.06277827  0.05370346     0.01200
N23         N  0.05850715  0.05837495  0.47084646    -0.25600
N24         N  0.02675722  0.95165618  0.06042831    -0.26100
N25         N  0.03872665  0.05936515  0.44706249     0.00900
H26         H  0.09866467  0.10366248  0.48320218     0.06800
H27         H  0.48070156  0.10271170  0.39840396     0.06800
N28         N  0.43906578  0.06350970  0.02957969    -0.26200
N29         N  0.46747284  0.95205574  0.44087711    -0.25800
N30         N  0.05170809  0.06020877  0.03994562     0.01200
C31         C  0.42594366  0.89103946  0.06169131     0.42600
C32         C  0.07691144  0.91077635  0.46795664    -0.07100
N33         N  0.46932230  0.06104037  0.44007522    -0.25800
H34         H  0.47786221  0.90607439  0.40069628     0.06800
N35         N  0.45120371  0.91568202  0.07323104    -0.47000
H36         H  0.09607406  0.90240852  0.48369673     0.06800
C37         C  0.07027301  0.12071993  0.43848227     0.42500
C38         C  0.03051767  0.91548142  0.08189830    -0.06500
Co39       Co  0.05508566  0.00434250  0.00580554     0.73800
N40         N  0.04291511  0.91222692  0.42719621    -0.46700
C41         C  0.42744722  0.12436440  0.06329264     0.42700
N42         N  0.07198871  0.09706923  0.04533678    -0.46700
Co43       Co  0.00331406  0.00526918  0.44319543     0.73900
C44         C  0.46548135  0.09668019  0.41825069    -0.07100
C45         C  0.41677980  0.91650061  0.03279939    -0.06600
N46         N  0.02776950  0.06094159  0.05943446    -0.26100
N47         N  0.42184772  0.91931867  0.45382804    -0.46900
H48         H  0.39938553  0.10965819  0.01788167     0.06700
C49         C  0.07944415  0.09555376  0.46741606    -0.07000
Cl50       Cl  0.99792018  0.00628239  0.00029421    -0.50000
C51         C  0.06764820  0.88635166  0.43863642     0.42500
H52         H  0.01524845  0.10919372  0.09781944     0.06700
N53         N  0.04492229  0.09616209  0.42706915    -0.46700
C54         C  0.30897236  0.62408677  0.17797757     0.42300
N55         N  0.29962959  0.56351991  0.20983072     0.01200
C56         C  0.16766890  0.41285594  0.21775879    -0.06600
H57         H  0.14670859  0.60524353  0.23509536     0.06700
C58         C  0.21505599  0.59708936  0.33112015    -0.07000
Co59       Co  0.24112874  0.50768481  0.19319892     0.74200
N60         N  0.18677513  0.56040751  0.22235233    -0.26200
Co61       Co  0.19034910  0.50498628  0.25648108     0.74100
C62         C  0.18556985  0.62109661  0.32217728     0.42400
N63         N  0.28739683  0.56123994  0.30324533     0.00900
N64         N  0.19438702  0.55918061  0.29128493     0.01000
N65         N  0.20115562  0.41560857  0.17673687    -0.47000
H66         H  0.26348643  0.60811436  0.15025021     0.06700
N67         N  0.20609062  0.56152049  0.19828825     0.01200
N68         N  0.19509668  0.44950917  0.29056112     0.01000
C69         C  0.18628086  0.38769345  0.32154035     0.42600
N70         N  0.30683263  0.56210179  0.27926016    -0.25600
C71         C  0.28036560  0.41724366  0.16820997    -0.06500
N72         N  0.32036861  0.59894515  0.20298930    -0.46700
N73         N  0.17458675  0.41355626  0.29697821    -0.47000
C74         C  0.30992672  0.39343370  0.17698561     0.42400
N75         N  0.20716455  0.45174201  0.19728527     0.01200
N76         N  0.30816312  0.45272794  0.27822840    -0.25600
N77         N  0.27543836  0.56334621  0.19053841    -0.26100
N78         N  0.28881160  0.45130579  0.30226375     0.00900
H79         H  0.34855996  0.40875186  0.26555585     0.06800
H80         H  0.23176215  0.40315806  0.34932295     0.06800
N81         N  0.18786222  0.45101364  0.22136808    -0.26200
N82         N  0.21848245  0.55920107  0.31066816    -0.25800
N83         N  0.30040301  0.45371090  0.20896847     0.01200
C84         C  0.17440171  0.62255756  0.19000365     0.42600
C85         C  0.32689646  0.60042076  0.28309400    -0.07100
N86         N  0.21936458  0.44940076  0.30975451    -0.25800
H87         H  0.23105092  0.60597115  0.35002226     0.06800
N88         N  0.19938813  0.59789537  0.17827460    -0.47000
H89         H  0.34582551  0.61002340  0.26739990     0.06800
C90         C  0.32100677  0.39085158  0.31066597     0.42500
C91         C  0.27908880  0.60049152  0.16964982    -0.06500
Co92       Co  0.30442525  0.50804619  0.24399827     0.73800
N93         N  0.29301761  0.59753451  0.32380865    -0.46700
C94         C  0.17661988  0.38934785  0.18816076     0.42700
N95         N  0.32103226  0.41813758  0.20236078    -0.46700
Co96       Co  0.25362364  0.50517344  0.30720199     0.73900
C97         C  0.21601418  0.41145790  0.33014197    -0.07100
C98         C  0.16588286  0.59769572  0.21927501    -0.06600
N99         N  0.27641128  0.45396527  0.18941571    -0.26100
N100        N  0.17405591  0.59536647  0.29741022    -0.46900
H101        H  0.14880250  0.40374960  0.23363192     0.06700
C102        C  0.32937525  0.41595750  0.28141648    -0.07000
Cl103      Cl  0.24740504  0.50641369  0.25020911    -0.50000
C104        C  0.31754145  0.62390186  0.31257782     0.42500
H105        H  0.26471833  0.40892132  0.14891516     0.06700
N106        N  0.29573307  0.41498528  0.32229909    -0.46700
C107        C  0.16827087  0.27429196  0.09755886    -0.17900
C108        C  0.15159859  0.23812290  0.08037473    -0.20100
C109        C  0.12247841  0.22054792  0.09104012     0.20500
C110        C  0.11003271  0.23974736  0.11923968    -0.03000
C111        C  0.12692220  0.27590010  0.13665133    -0.06100
C112        C  0.15613514  0.29338030  0.12569860     0.20800
C113        C  0.11457147  0.29446757  0.16504707     0.19000
C114        C  0.08551519  0.27693165  0.17575742    -0.17600
C115        C  0.06870405  0.24134756  0.15842484    -0.19800
C116        C  0.08080054  0.22252244  0.13023414     0.20500
C117        C  0.06436992  0.18601364  0.11322838    -0.32800
C118        C  0.07693816  0.16554194  0.08563907     0.01200
C119        C  0.10581866  0.18349244  0.07437216    -0.24200
C120        C  0.17252448  0.32988343  0.14297998    -0.28700
C121        C  0.16010645  0.34894851  0.17106733     0.06800
C122        C  0.13131510  0.33060306  0.18212612    -0.27400
H123        H  0.19070345  0.28729915  0.08884971     0.11600
H124        H  0.16151830  0.22377916  0.05881154     0.12700
H125        H  0.07574859  0.29082921  0.19752531     0.11800
H126        H  0.04631898  0.22829076  0.16717598     0.11000
H127        H  0.04210852  0.17278727  0.12208661     0.16400
H128        H  0.11555904  0.16805028  0.05299871     0.12300
H129        H  0.19483076  0.34375451  0.13442779     0.15200
H130        H  0.12151501  0.34501021  0.20371992     0.14900
C131        C  0.07203281  0.25862210  0.36103683    -0.17900
C132        C  0.08846604  0.29526183  0.34420896    -0.20100
C133        C  0.12060691  0.30283625  0.34945195     0.20500
C134        C  0.13631467  0.27351486  0.37207511    -0.03000
C135        C  0.11970886  0.23669911  0.38914577    -0.06100
C136        C  0.08746162  0.22896028  0.38341485     0.20800
C137        C  0.13543149  0.20743028  0.41178335     0.19000
C138        C  0.16755206  0.21505565  0.41707527    -0.17600
C139        C  0.18402600  0.25141198  0.40008696    -0.19800
C140        C  0.16861531  0.28090633  0.37761840     0.20500
C141        C  0.18490877  0.31785037  0.36075850    -0.32800
C142        C  0.16935520  0.34745123  0.33836811     0.01200
C143        C  0.13727744  0.33939373  0.33262999    -0.24200
C144        C  0.07133941  0.19130569  0.39988215    -0.28700
C145        C  0.08695700  0.16179980  0.42226547     0.06800
C146        C  0.11887170  0.17057527  0.42841981    -0.27400
H147        H  0.04726893  0.25332052  0.35644455     0.11600
H148        H  0.07603511  0.31761433  0.32700627     0.12700
H149        H  0.17997964  0.19275196  0.43430089     0.11800
H150        H  0.20881421  0.25654422  0.40457538     0.10000
H151        H  0.20967177  0.32349880  0.36511100     0.16400
H152        H  0.12513016  0.36216790  0.31541510     0.12300
H153        H  0.04666276  0.18485078  0.39525509     0.15200
H154        H  0.13111304  0.14774857  0.44550227     0.14900
C155        C  0.15871065  0.72482978  0.09530659    -0.17900
C156        C  0.14265424  0.76221332  0.07887260    -0.20100
C157        C  0.11808555  0.78859871  0.09313067     0.20500
C158        C  0.10964812  0.77733622  0.12431778    -0.03000
C159        C  0.12588744  0.73965607  0.14092385    -0.06100
C160        C  0.15048060  0.71329224  0.12627689     0.20800
C161        C  0.11741821  0.72819491  0.17207712     0.19000
C162        C  0.09298492  0.75488400  0.18640519    -0.17600
C163        C  0.07686939  0.79225905  0.16993162    -0.19800
C164        C  0.08490949  0.80353436  0.13884711     0.20500
C165        C  0.06858563  0.84039877  0.12200804    -0.32800
C166        C  0.07682581  0.85167298  0.09091434     0.01200
C167        C  0.10172443  0.82587628  0.07671241    -0.24200
C168        C  0.16633137  0.67562472  0.14274461    -0.28700
C169        C  0.15784639  0.66353950  0.17361455     0.06800
C170        C  0.13343368  0.69009902  0.18822316    -0.27400
H171        H  0.17753787  0.70483966  0.08376511     0.11600
H172        H  0.14939770  0.77038852  0.05494540     0.12700
H173        H  0.08623629  0.74669141  0.21033190     0.11800
H174        H  0.05800746  0.81219352  0.18145290     0.11000
H175        H  0.04967638  0.86055275  0.13327732     0.16400
H176        H  0.10817432  0.83448715  0.05274273     0.12300
H177        H  0.18510662  0.65527377  0.13132936     0.15200
H178        H  0.12686015  0.68123248  0.21209908     0.14900
C179        C  0.33129109  0.29618683  0.08070788    -0.17900
C180        C  0.34812122  0.25911244  0.06474443    -0.20100
C181        C  0.37122540  0.23111007  0.08028868     0.20500
C182        C  0.37765246  0.24077061  0.11217692    -0.03000
C183        C  0.36066986  0.27823677  0.12829789    -0.06100
C184        C  0.33729211  0.30589974  0.11248501     0.20800
C185        C  0.36708222  0.28800735  0.16018882     0.19000
C186        C  0.39027099  0.26008675  0.17569630    -0.17600
C187        C  0.40706886  0.22287810  0.15972042    -0.19800
C188        C  0.40097348  0.21294304  0.12796038     0.20500
C189        C  0.41758077  0.17549325  0.11174473    -0.32800
C190        C  0.41093126  0.16522002  0.08005651     0.01200
C191        C  0.38785603  0.19344968  0.06450144    -0.24200
C192        C  0.32041711  0.34290809  0.12867270    -0.28700
C193        C  0.32690368  0.35315170  0.16034075     0.06800
C194        C  0.35027729  0.32562529  0.17594670    -0.27400
H195        H  0.31352313  0.31722651  0.06819744     0.11600
H196        H  0.34298307  0.25220658  0.04022910     0.12700
H197        H  0.39542959  0.26705218  0.20019633     0.11800
H198        H  0.42483546  0.20182287  0.17223132     0.11000
H199        H  0.43533993  0.15386486  0.12390809     0.16400
H200        H  0.38274739  0.18623701  0.04002983     0.12300
H201        H  0.30265727  0.36435087  0.11641595     0.15200
H202        H  0.35527471  0.33335297  0.20041290     0.14900
C203        C  0.33463540  0.79774362  0.40821470    -0.17900
C204        C  0.31848724  0.76006532  0.39174132    -0.20100
C205        C  0.33400135  0.73065985  0.36926138     0.20500
C206        C  0.36607121  0.73935807  0.36331030    -0.03000
C207        C  0.38232803  0.77719004  0.37993646    -0.06100
C208        C  0.36657309  0.80657438  0.40250777     0.20800
C209        C  0.41439395  0.78559585  0.37389432     0.19000
C210        C  0.42997559  0.75610004  0.35161327    -0.17600
C211        C  0.41389265  0.71868811  0.33514369    -0.19800
C212        C  0.38196776  0.71025450  0.34070809     0.20500
C213        C  0.36574290  0.67313223  0.32400911    -0.32800
C214        C  0.33391329  0.66413095  0.32982672     0.01200
C215        C  0.31813968  0.69271294  0.35259734    -0.24200
C216        C  0.38308793  0.84427313  0.41880502    -0.28700
C217        C  0.41500836  0.85301003  0.41252174     0.06800
C218        C  0.43041812  0.82339793  0.39015136    -0.27400
H219        H  0.32214403  0.81997764  0.42541965     0.11600
H220        H  0.29386313  0.75394779  0.39656282     0.12700
H221        H  0.45463468  0.76208180  0.34683945     0.11800
H222        H  0.42639848  0.69644831  0.31797829     0.11000
H223        H  0.37810355  0.65066285  0.30685046     0.16400
H224        H  0.29352436  0.68569569  0.35710287     0.12300
H225        H  0.37106460  0.86710404  0.43606267     0.15200
H226        H  0.45505523  0.82946035  0.38540691     0.14900
C227        C  0.41065200  0.27356164  0.31935490    -0.17900
C228        C  0.42680657  0.23599208  0.33564865    -0.20100
C229        C  0.41480344  0.21662790  0.36376435     0.20500
C230        C  0.38612267  0.23499866  0.37543471    -0.03000
C231        C  0.36981883  0.27285812  0.35898730    -0.06100
C232        C  0.38220111  0.29235464  0.33087195     0.20800
C233        C  0.34125023  0.29142753  0.37082292     0.19000
C234        C  0.32912074  0.27179617  0.39877914    -0.17600
C235        C  0.34526438  0.23431120  0.41506606    -0.19800
C236        C  0.37380991  0.21582623  0.40366655     0.20500
C237        C  0.39031840  0.17873273  0.42011573    -0.32800
C238        C  0.41902744  0.16049333  0.40880521     0.01200
C239        C  0.43106463  0.17947622  0.38050559    -0.24200
C240        C  0.36603081  0.33051806  0.31491922    -0.28700
C241        C  0.33768319  0.34953763  0.32678877     0.06800
C242        C  0.32541016  0.32955770  0.35465490    -0.27400
H243        H  0.42048649  0.28806206  0.29779385     0.11600
H244        H  0.44876770  0.22225950  0.32633611     0.12700
H245        H  0.30718392  0.28561984  0.40814061     0.11800
H246        H  0.33548168  0.21992366  0.43668111     0.11000
H247        H  0.38083267  0.16420707  0.44184912     0.16400
H248        H  0.45307978  0.16560790  0.37147316     0.12300
H249        H  0.37573881  0.34561744  0.29348937     0.15200
H250        H  0.30353771  0.34389594  0.36391232     0.14900
C251        C  0.07763593  0.77093562  0.34799106    -0.17900
C252        C  0.09455585  0.73468460  0.33130223    -0.20100
C253        C  0.12329754  0.71691520  0.34282665     0.20500
C254        C  0.13517296  0.73600949  0.37136073    -0.03000
C255        C  0.11805363  0.77238022  0.38824243    -0.06100
C256        C  0.08915550  0.78999040  0.37649493     0.20800
C257        C  0.12991065  0.79115086  0.41685239     0.19000
C258        C  0.15874710  0.77370925  0.42826639    -0.17600
C259        C  0.17574554  0.73781938  0.41150462    -0.19800
C260        C  0.16411568  0.71865928  0.38312221     0.20500
C261        C  0.18080430  0.68202062  0.36653597    -0.32800
C262        C  0.16883978  0.66202888  0.33845925     0.01200
C263        C  0.14022849  0.68003509  0.32654546    -0.24200
C264        C  0.07249065  0.82663247  0.39333538    -0.28700
C265        C  0.08435780  0.84581677  0.42174902     0.06800
C266        C  0.11292835  0.82741878  0.43345916    -0.27400
H267        H  0.05551554  0.78407132  0.33859847     0.11600
H268        H  0.08512735  0.72046314  0.30940551     0.12700
H269        H  0.16819163  0.78789040  0.45016277     0.11800
H270        H  0.19793363  0.72489341  0.42081198     0.11000
H271        H  0.20282112  0.66857370  0.37588286     0.16400
H272        H  0.13094196  0.66494412  0.30479052     0.12300
H273        H  0.05043285  0.84053227  0.38418541     0.15200
H274        H  0.12237205  0.84180194  0.45526182     0.14900
C275        C  0.40533297  0.72362162  0.16053270    -0.17900
C276        C  0.42188936  0.76051924  0.14402682    -0.20100
C277        C  0.40785792  0.78565991  0.11875390     0.20500
C278        C  0.37705032  0.77276122  0.10963807    -0.03000
C279        C  0.36031473  0.73566755  0.12635554    -0.06100
C280        C  0.37444729  0.71129397  0.15208371     0.20800
C281        C  0.32934606  0.72335857  0.11750165     0.19000
C282        C  0.31557018  0.74763777  0.09178341    -0.17600
C283        C  0.33216208  0.78430171  0.07518483    -0.19800
C284        C  0.36279756  0.79735891  0.08406819     0.20500
C285        C  0.37920774  0.83512448  0.06810066    -0.32800
C286        C  0.40958276  0.84914639  0.07754714     0.01200
C287        C  0.42388404  0.82391810  0.10271267    -0.24200
C288        C  0.35740746  0.67520183  0.16895662    -0.28700
C289        C  0.32646203  0.66295204  0.16037903     0.06800
C290        C  0.31264289  0.68716052  0.13456977    -0.27400
H291        H  0.41660768  0.70500997  0.18010130     0.11600
H292        H  0.44558839  0.76970756  0.15120549     0.12700
H293        H  0.29185848  0.73847250  0.08460110     0.11800
H294        H  0.32093139  0.80276162  0.05555499     0.11000
H295        H  0.36792833  0.85435054  0.04881079     0.16400
H296        H  0.44739821  0.83430049  0.10994723     0.12300
H297        H  0.36830641  0.65651986  0.18872891     0.15200
H298        H  0.28884031  0.67807485  0.12773403     0.14900
C299        C  0.05982851  0.89089057  0.57336894     0.42300
N300        N  0.05052416  0.95026323  0.54076016     0.01200
C301        C  0.41868942  0.10122113  0.53343249    -0.06600
H302        H  0.39765093  0.90852199  0.51689762     0.06700
C303        C  0.46267595  0.91497060  0.92015118    -0.07000
Co304      Co  0.49250544  0.00695904  0.55744243     0.74200
N305        N  0.43755330  0.95395970  0.52959349    -0.26200
Co306      Co  0.44081754  0.00865322  0.99480471     0.74100
C307        C  0.43242100  0.89329916  0.92885849     0.42400
N308        N  0.03713308  0.94888499  0.94747639     0.00900
N309        N  0.44350995  0.95356709  0.96032417     0.01000
N310        N  0.45213879  0.09830221  0.57460873    -0.47000
H311        H  0.01510753  0.90857248  0.60149610     0.06700
N312        N  0.45733227  0.95270748  0.55338895     0.01200
N313        N  0.44560850  0.06287710  0.95981915     0.01000
C314        C  0.43609972  0.12137416  0.92654598     0.42600
N315        N  0.05678738  0.94892311  0.97138091    -0.25600
C316        C  0.03120260  0.09976516  0.57910420    -0.06500
N317        N  0.07095821  0.91453944  0.54770822    -0.46700
N318        N  0.42507121  0.09822844  0.95245982    -0.47000
C319        C  0.06047994  0.12382135  0.56964612     0.42400
N320        N  0.45842029  0.06277821  0.55370376     0.01200
N321        N  0.05850715  0.05837458  0.97084608    -0.25600
N322        N  0.02675726  0.95165606  0.56042859    -0.26100
N323        N  0.03872666  0.05936481  0.94706209     0.00900
H324        H  0.09866458  0.10366220  0.98320200     0.06800
H325        H  0.48070159  0.10271092  0.89840318     0.06800
N326        N  0.43906576  0.06350963  0.52957995    -0.26200
N327        N  0.46747285  0.95205546  0.94087697    -0.25800
N328        N  0.05170789  0.06020896  0.53994612     0.01200
C329        C  0.42594366  0.89103901  0.56169134     0.42600
C330        C  0.07691157  0.91077631  0.96795631    -0.07100
N331        N  0.46932245  0.06104009  0.94007478    -0.25800
H332        H  0.47786224  0.90607355  0.90069640     0.06800
N333        N  0.45120366  0.91568163  0.57323116    -0.47000
H334        H  0.09607424  0.90240869  0.98369634     0.06800
C335        C  0.07027299  0.12071962  0.93848204     0.42500
C336        C  0.03051779  0.91548132  0.58189858    -0.06500
Co337      Co  0.05508567  0.00434277  0.50580592     0.73800
N338        N  0.04291533  0.91222688  0.92719578    -0.46700
C339        C  0.42744753  0.12436502  0.56329251     0.42700
N340        N  0.07198830  0.09706968  0.54533738    -0.46700
Co341      Co  0.00331407  0.00526883  0.94319514     0.73900
C342        C  0.46548138  0.09667962  0.91825016    -0.07100
C343        C  0.41677990  0.91650017  0.53279940    -0.06600
N344        N  0.02776930  0.06094137  0.55943497    -0.26100
N345        N  0.42184767  0.91931871  0.95382798    -0.46900
H346        H  0.39938596  0.10965883  0.51788147     0.06700
C347        C  0.07944409  0.09555341  0.96741576    -0.07000
Cl348      Cl  0.99792016  0.00628247  0.50029449    -0.50000
C349        C  0.06764849  0.88635177  0.93863600     0.42500
H350        H  0.01524803  0.10919304  0.59782009     0.06700
N351        N  0.04492228  0.09616184  0.92706881    -0.46700
C352        C  0.30897174  0.62408717  0.67797781     0.42300
N353        N  0.29962932  0.56352015  0.70983094     0.01200
C354        C  0.16766914  0.41285524  0.71775978    -0.06600
H355        H  0.14670871  0.60524356  0.73509644     0.06700
C356        C  0.21505664  0.59708883  0.83112082    -0.07000
Co357      Co  0.24112860  0.50768459  0.69319940     0.74200
N358        N  0.18677507  0.56040713  0.72235315    -0.26200
Co359      Co  0.19034937  0.50498585  0.75648188     0.74100
C360        C  0.18557055  0.62109621  0.82217797     0.42400
N361        N  0.28739722  0.56123959  0.80324567     0.00900
N362        N  0.19438749  0.55918010  0.79128569     0.01000
N363        N  0.20115565  0.41560795  0.67673772    -0.47000
H364        H  0.26348580  0.60811445  0.65025062     0.06700
N365        N  0.20609045  0.56152006  0.69828894     0.01200
N366        N  0.19509718  0.44950879  0.79056191     0.01000
C367        C  0.18628147  0.38769336  0.82154138     0.42600
N368        N  0.30683291  0.56210167  0.77926041    -0.25600
C369        C  0.28036571  0.41724397  0.66820998    -0.06500
N370        N  0.32036819  0.59894560  0.70298946    -0.46700
N371        N  0.17458727  0.41355601  0.79697919    -0.47000
C372        C  0.30992701  0.39343433  0.67698540     0.42400
N373        N  0.20716457  0.45174153  0.69728602     0.01200
N374        N  0.30816357  0.45272788  0.77822837    -0.25600
N375        N  0.27543803  0.56334629  0.69053873    -0.26100
N376        N  0.28881213  0.45130555  0.80226381     0.00900
H377        H  0.34856008  0.40875133  0.76555524     0.06800
H378        H  0.23176294  0.40315800  0.84932380     0.06800
N379        N  0.18786234  0.45101316  0.72136891    -0.26200
N380        N  0.21848300  0.55920051  0.81066886    -0.25800
N381        N  0.30040312  0.45371113  0.70896852     0.01200
C382        C  0.17440172  0.62255746  0.69000454     0.42600
C383        C  0.32689661  0.60042084  0.78309418    -0.07100
N384        N  0.21936519  0.44940041  0.80975520    -0.25800
H385        H  0.23105172  0.60597070  0.85002286     0.06800
N386        N  0.19938802  0.59789506  0.67827540    -0.47000
H387        H  0.34582547  0.61002378  0.76740003     0.06800
C388        C  0.32100705  0.39085084  0.81066547     0.42500
C389        C  0.27908823  0.60049170  0.66965012    -0.06500
Co390      Co  0.30442542  0.50804630  0.74399839     0.73800
N391        N  0.29301793  0.59753416  0.82380899    -0.46700
C392        C  0.17662004  0.38934705  0.68816175     0.42700
N393        N  0.32103250  0.41813814  0.70236063    -0.46700
Co394      Co  0.25362417  0.50517304  0.80720241     0.73900
C395        C  0.21601482  0.41145779  0.83014277    -0.07100
C396        C  0.16588291  0.59769550  0.71927590    -0.06600
N397        N  0.27641128  0.45396535  0.68941586    -0.26100
N398        N  0.17405650  0.59536606  0.79741097    -0.46900
H399        H  0.14880285  0.40374876  0.73363302     0.06700
C400        C  0.32937554  0.41595716  0.78141613    -0.07000
Cl401      Cl  0.24740527  0.50641340  0.75020956    -0.50000
C402        C  0.31754159  0.62390175  0.81257805     0.42500
H403        H  0.26471838  0.40892156  0.64891517     0.06700
N404        N  0.29573350  0.41498463  0.82229886    -0.46700
C405        C  0.16826839  0.27429640  0.59755754    -0.17900
C406        C  0.15159596  0.23812760  0.58037341    -0.20100
C407        C  0.12247672  0.22055035  0.59103995     0.20500
C408        C  0.11003213  0.23974732  0.61924064    -0.03000
C409        C  0.12692179  0.27589987  0.63665226    -0.06100
C410        C  0.15613383  0.29338225  0.62569842     0.20800
C411        C  0.11457219  0.29446500  0.66504910     0.19000
C412        C  0.08551680  0.27692696  0.67576052    -0.17600
C413        C  0.06870553  0.24134286  0.65842806    -0.19800
C414        C  0.08080090  0.22252002  0.63023628     0.20500
C415        C  0.06437019  0.18601132  0.61323049    -0.32800
C416        C  0.07693746  0.16554199  0.58564003     0.01200
C417        C  0.10581695  0.18349487  0.57437203    -0.24200
C418        C  0.17252340  0.32988502  0.64297986    -0.28700
C419        C  0.16010648  0.34894778  0.67106833     0.06800
C420        C  0.13131605  0.33060021  0.68212815    -0.27400
H421        H  0.19070032  0.28730537  0.58884747     0.11600
H422        H  0.16151483  0.22378570  0.55880936     0.12700
H423        H  0.07575105  0.29082282  0.69752920     0.11800
H424        H  0.04632117  0.22828428  0.66718014     0.11000
H425        H  0.04210952  0.17278301  0.62208962     0.16400
H426        H  0.11555655  0.16805453  0.55299771     0.12300
H427        H  0.19482893  0.34375772  0.63442683     0.15200
H428        H  0.12151685  0.34500546  0.70372291     0.14900
C429        C  0.07203349  0.25862117  0.86103640    -0.17900
C430        C  0.08846686  0.29526088  0.84420868    -0.20100
C431        C  0.12060758  0.30283582  0.84945231     0.20500
C432        C  0.13631508  0.27351488  0.87207587    -0.03000
C433        C  0.11970912  0.23669910  0.88914632    -0.06100
C434        C  0.08746201  0.22895987  0.88341485     0.20800
C435        C  0.13543148  0.20743059  0.91178422     0.19000
C436        C  0.16755193  0.21505631  0.91707668    -0.17600
C437        C  0.18402604  0.25141260  0.90008852    -0.19800
C438        C  0.16861562  0.28090674  0.87761967     0.20500
C439        C  0.18490918  0.31785084  0.86075994    -0.32800
C440        C  0.16935583  0.34745129  0.83836920     0.01200
C441        C  0.13727822  0.33939330  0.83263056    -0.24200
C442        C  0.07133965  0.19130526  0.89988194    -0.28700
C443        C  0.08695702  0.16179960  0.92226551     0.06800
C444        C  0.11887155  0.17057550  0.92842042    -0.27400
H445        H  0.04726970  0.25331913  0.85644363     0.11600
H446        H  0.07603617  0.31761300  0.82700563     0.12700
H447        H  0.17997928  0.19275292  0.93430260     0.11800
H448        H  0.20881421  0.25654496  0.90457729     0.10000
H449        H  0.20967216  0.32349956  0.86511277     0.16400
H450        H  0.12513111  0.36216709  0.81541532     0.12300
H451        H  0.04666315  0.18485007  0.89525449     0.15200
H452        H  0.13111275  0.14774903  0.94550316     0.14900
C453        C  0.15871378  0.72483467  0.59530889    -0.17900
C454        C  0.14265732  0.76221811  0.57887483    -0.20100
C455        C  0.11808729  0.78860129  0.59313213     0.20500
C456        C  0.10964853  0.77733673  0.62431859    -0.03000
C457        C  0.12588785  0.73965663  0.64092474    -0.06100
C458        C  0.15048235  0.71329497  0.62627854     0.20800
C459        C  0.11741727  0.72819336  0.67207735     0.19000
C460        C  0.09298263  0.75488029  0.68640468    -0.17600
C461        C  0.07686712  0.79225528  0.66993101    -0.19800
C462        C  0.08490860  0.80353271  0.63884716     0.20500
C463        C  0.06858478  0.84039711  0.62200801    -0.32800
C464        C  0.07682626  0.85167345  0.59091494     0.01200
C465        C  0.10172617  0.82587884  0.57671376    -0.24200
C466        C  0.16633304  0.67562736  0.64274630    -0.28700
C467        C  0.15784667  0.66353990  0.67361554     0.06800
C468        C  0.13343270  0.69009747  0.68822345    -0.27400
H469        H  0.17754203  0.70484635  0.58376803     0.11600
H470        H  0.14940189  0.77039503  0.55494808     0.12700
H471        H  0.08623292  0.74668605  0.71033085     0.11800
H472        H  0.05800414  0.81218798  0.68145168     0.11000
H473        H  0.04967448  0.86054925  0.63327672     0.16400
H474        H  0.10817712  0.83449129  0.55274468     0.12300
H475        H  0.18510932  0.65527804  0.63133156     0.15200
H476        H  0.12685807  0.68122920  0.71209880     0.14900
C477        C  0.33129156  0.29618781  0.58070756    -0.17900
C478        C  0.34812180  0.25911356  0.56474406    -0.20100
C479        C  0.37122609  0.23111137  0.58028824     0.20500
C480        C  0.37765321  0.24077201  0.61217646    -0.03000
C481        C  0.36067058  0.27823811  0.62829746    -0.06100
C482        C  0.33729268  0.30590081  0.61248469     0.20800
C483        C  0.36708299  0.28800873  0.66018841     0.19000
C484        C  0.39027185  0.26008828  0.67569581    -0.17600
C485        C  0.40706977  0.22287975  0.65971989    -0.19800
C486        C  0.40097429  0.21294454  0.62795989     0.20500
C487        C  0.41758143  0.17549458  0.61174430    -0.32800
C488        C  0.41093180  0.16522107  0.58005617     0.01200
C489        C  0.38785667  0.19345086  0.56450102    -0.24200
C490        C  0.32041754  0.34290898  0.62867242    -0.28700
C491        C  0.32690415  0.35315259  0.66034050     0.06800
C492        C  0.35027795  0.32562649  0.67594632    -0.27400
H493        H  0.31352349  0.31722724  0.56819720     0.11600
H494        H  0.34298359  0.25220763  0.54022873     0.12700
H495        H  0.39543048  0.26705370  0.70019585     0.11800
H496        H  0.42483646  0.20182465  0.67223075     0.11000
H497        H  0.43534064  0.15386616  0.62390771     0.16400
H498        H  0.38274802  0.18623807  0.54002945     0.12300
H499        H  0.30265763  0.36435149  0.61641579     0.15200
H500        H  0.35527543  0.33335424  0.70041262     0.14900
C501        C  0.33463496  0.79774518  0.90821367    -0.17900
C502        C  0.31848681  0.76006696  0.89174021    -0.20100
C503        C  0.33400114  0.73066061  0.86926089     0.20500
C504        C  0.36607124  0.73935785  0.86331050    -0.03000
C505        C  0.38232804  0.77718976  0.87993672    -0.06100
C506        C  0.36657289  0.80657492  0.90250741     0.20800
C507        C  0.41439419  0.78559463  0.87389524     0.19000
C508        C  0.42997607  0.75609786  0.85161489    -0.17600
C509        C  0.41389317  0.71868590  0.83514528    -0.19800
C510        C  0.38196804  0.71025329  0.84070899     0.20500
C511        C  0.36574323  0.67313100  0.82400999    -0.32800
C512        C  0.33391338  0.66413080  0.82982691     0.01200
C513        C  0.31813951  0.69271371  0.85259685    -0.24200
C514        C  0.38308770  0.84427368  0.91880473    -0.28700
C515        C  0.41500835  0.85300969  0.91252198     0.06800
C516        C  0.43041833  0.82339672  0.89015226    -0.27400
H517        H  0.32214341  0.81997987  0.92541807     0.11600
H518        H  0.29386253  0.75395017  0.89656119     0.12700
H519        H  0.45463534  0.76207887  0.84684163     0.11800
H520        H  0.42639918  0.69644541  0.81798049     0.11000
H521        H  0.37810404  0.65066078  0.80685192     0.16400
H522        H  0.29352396  0.68569712  0.85710187     0.12300
H523        H  0.37106426  0.86710524  0.93606179     0.15200
H524        H  0.45505561  0.82945842  0.88540831     0.14900
C525        C  0.41065225  0.27356089  0.81935431    -0.17900
C526        C  0.42680681  0.23599141  0.83564809    -0.20100
C527        C  0.41480332  0.21662658  0.86376348     0.20500
C528        C  0.38612214  0.23499645  0.87543339    -0.03000
C529        C  0.36981838  0.27285595  0.85898600    -0.06100
C530        C  0.38220104  0.29235322  0.83087098     0.20800
C531        C  0.34124953  0.29142480  0.87082132     0.19000
C532        C  0.32911956  0.27179256  0.89877712    -0.17600
C533        C  0.34526316  0.23430755  0.91506400    -0.19800
C534        C  0.37380906  0.21582340  0.90366494     0.20500
C535        C  0.39031770  0.17873035  0.92011434    -0.32800
C536        C  0.41902720  0.16049203  0.90880430     0.01200
C537        C  0.43106464  0.17947537  0.88050493    -0.24200
C538        C  0.36603085  0.33051686  0.81491836    -0.28700
C539        C  0.33768312  0.34953614  0.82678780     0.06800
C540        C  0.32540968  0.32955538  0.85465352    -0.27400
H541        H  0.42048707  0.28806192  0.79779345     0.11600
H542        H  0.44876825  0.22225946  0.82633594     0.12700
H543        H  0.30718254  0.28561572  0.90813827     0.11800
H544        H  0.33548013  0.21991945  0.93667891     0.11000
H545        H  0.38083180  0.16420431  0.94184750     0.16400
H546        H  0.45308023  0.16560790  0.87147291     0.12300
H547        H  0.37573912  0.34561688  0.79348881     0.15200
H548        H  0.30353711  0.34389335  0.86391079     0.14900
C549        C  0.07763681  0.77093563  0.84799074    -0.17900
C550        C  0.09455672  0.73468442  0.83130212    -0.20100
C551        C  0.12329839  0.71691513  0.84282674     0.20500
C552        C  0.13517366  0.73600958  0.87136084    -0.03000
C553        C  0.11805429  0.77238045  0.88824233    -0.06100
C554        C  0.08915622  0.78999065  0.87649461     0.20800
C555        C  0.12991115  0.79115119  0.91685236     0.19000
C556        C  0.15874745  0.77370941  0.92826661    -0.17600
C557        C  0.17574593  0.73781934  0.91150508    -0.19800
C558        C  0.16411625  0.71865923  0.88312258     0.20500
C559        C  0.18080491  0.68202042  0.86653654    -0.32800
C560        C  0.16884056  0.66202864  0.83845977     0.01200
C561        C  0.14022938  0.68003492  0.82654576    -0.24200
C562        C  0.07249131  0.82663277  0.89333491    -0.28700
C563        C  0.08435827  0.84581710  0.92174863     0.06800
C564        C  0.11292878  0.82741919  0.93345893    -0.27400
H565        H  0.05551638  0.78407137  0.83859793     0.11600
H566        H  0.08512832  0.72046269  0.80940546     0.12700
H567        H  0.16819186  0.78789061  0.95016312     0.11800
H568        H  0.19793385  0.72489323  0.92081264     0.11000
H569        H  0.20282166  0.66857335  0.87588363     0.16400
H570        H  0.13094295  0.66494384  0.80479080     0.12300
H571        H  0.05043352  0.84053256  0.88418477     0.15200
H572        H  0.12237238  0.84180243  0.95526168     0.14900
C573        C  0.40533165  0.72362387  0.66053421    -0.17900
C574        C  0.42188816  0.76052120  0.64402824    -0.20100
C575        C  0.40785709  0.78566095  0.61875476     0.20500
C576        C  0.37704971  0.77276171  0.60963851    -0.03000
C577        C  0.36031401  0.73566818  0.62635598    -0.06100
C578        C  0.37444624  0.71129543  0.65208466     0.20800
C579        C  0.32934557  0.72335851  0.61750161     0.19000
C580        C  0.31556997  0.74763719  0.59178301    -0.17600
C581        C  0.33216200  0.78430102  0.57518443    -0.19800
C582        C  0.36279731  0.79735864  0.58406815     0.20500
C583        C  0.37920768  0.83512389  0.56810049    -0.32800
C584        C  0.40958254  0.84914619  0.57754727     0.01200
C585        C  0.42388347  0.82391866  0.60271331    -0.24200
C586        C  0.35740639  0.67520327  0.66895743    -0.28700
C587        C  0.32646128  0.66295258  0.66037931     0.06800
C588        C  0.31264237  0.68716041  0.63456965    -0.27400
H589        H  0.41660608  0.70501287  0.68010321     0.11600
H590        H  0.44558708  0.76970996  0.65120723     0.12700
H591        H  0.29185844  0.73847156  0.58460037     0.11800
H592        H  0.32093159  0.80276043  0.55555428     0.11000
H593        H  0.36792852  0.85434936  0.54881023     0.16400
H594        H  0.44739745  0.83430126  0.60994808     0.12300
H595        H  0.36830515  0.65652187  0.68873015     0.15200
H596        H  0.28883996  0.67807418  0.62773354     0.14900
C597        C  0.55982804  0.89089039  0.07336852     0.42300
N598        N  0.55052389  0.95026314  0.04075978     0.01200
C599        C  0.91868941  0.10122063  0.03343264    -0.06600
H600        H  0.89765092  0.90852227  0.01689787     0.06700
C601        C  0.96267591  0.91497125  0.42015113    -0.07000
Co602      Co  0.99250567  0.00695912  0.05744220     0.74200
N603        N  0.93755336  0.95395984  0.02959353    -0.26200
Co604      Co  0.94081755  0.00865312  0.49480508     0.74100
C605        C  0.93242099  0.89329960  0.42885841     0.42400
N606        N  0.53713308  0.94888519  0.44747676     0.00900
N607        N  0.94350995  0.95356724  0.46032435     0.01000
N608        N  0.95213888  0.09830182  0.07460873    -0.47000
H609        H  0.51510730  0.90857295  0.10149584     0.06700
N610        N  0.95733237  0.95270769  0.05338896     0.01200
N611        N  0.94560836  0.06287735  0.45981967     0.01000
C612        C  0.93609980  0.12137515  0.42654693     0.42600
N613        N  0.55678740  0.94892336  0.47138124    -0.25600
C614        C  0.53120282  0.09976552  0.07910349    -0.06500
N615        N  0.57095777  0.91453904  0.04770774    -0.46700
N616        N  0.92507118  0.09822903  0.45246059    -0.47000
C617        C  0.56048034  0.12382125  0.06964542     0.42400
N618        N  0.95842058  0.06277823  0.05370359     0.01200
N619        N  0.55850716  0.05837490  0.47084631    -0.25600
N620        N  0.52675708  0.95165629  0.06042825    -0.26100
N621        N  0.53872665  0.05936496  0.44706235     0.00900
H622        H  0.59866467  0.10366264  0.48320196     0.06800
H623        H  0.98070168  0.10271211  0.39840416     0.06800
N624        N  0.93906594  0.06350958  0.02957982    -0.26200
N625        N  0.96747281  0.95205590  0.44087713    -0.25800
N626        N  0.55170797  0.06020885  0.03994554     0.01200
C627        C  0.92594369  0.89103943  0.06169157     0.42600
C628        C  0.57691143  0.91077622  0.46795676    -0.07100
N629        N  0.96932232  0.06104054  0.44007534    -0.25800
H630        H  0.97786206  0.90607455  0.40069632     0.06800
N631        N  0.95120373  0.91568204  0.07323128    -0.47000
H632        H  0.59607396  0.90240840  0.48369680     0.06800
C633        C  0.57027293  0.12071981  0.43848205     0.42500
C634        C  0.53051750  0.91548158  0.08189830    -0.06500
Co635      Co  0.55508561  0.00434252  0.00580551     0.73800
N636        N  0.54291509  0.91222672  0.42719631    -0.46700
C637        C  0.92744741  0.12436436  0.06329272     0.42700
N638        N  0.57198860  0.09706924  0.04533679    -0.46700
Co639      Co  0.50331407  0.00526904  0.44319539     0.73900
C640        C  0.96548139  0.09668048  0.41825093    -0.07100
C641        C  0.91677987  0.91650043  0.03279957    -0.06600
N642        N  0.52776934  0.06094165  0.05943435    -0.26100
N643        N  0.92184767  0.91931890  0.45382802    -0.46900
H644        H  0.89938563  0.10965796  0.01788175     0.06700
C645        C  0.57944411  0.09555373  0.46741583    -0.07000
Cl646      Cl  0.49792013  0.00628242  0.00029409    -0.50000
C647        C  0.56764811  0.88635140  0.43863658     0.42500
H648        H  0.51524834  0.10919355  0.09781946     0.06700
N649        N  0.54492223  0.09616189  0.42706895    -0.46700
C650        C  0.80897214  0.62408683  0.17797764     0.42300
N651        N  0.79962943  0.56351984  0.20983071     0.01200
C652        C  0.66766885  0.41285590  0.21775901    -0.06600
H653        H  0.64670851  0.60524339  0.23509529     0.06700
C654        C  0.71505626  0.59708982  0.33111993    -0.07000
Co655      Co  0.74112861  0.50768467  0.19319895     0.74200
N656        N  0.68677505  0.56040739  0.22235235    -0.26200
Co657      Co  0.69034909  0.50498630  0.25648119     0.74100
C658        C  0.68557023  0.62109732  0.32217691     0.42400
N659        N  0.78739693  0.56123996  0.30324526     0.00900
N660        N  0.69438710  0.55918068  0.29128495     0.01000
N661        N  0.70115555  0.41560838  0.17673709    -0.47000
H662        H  0.76348620  0.60811433  0.15025025     0.06700
N663        N  0.70609049  0.56152027  0.19828825     0.01200
N664        N  0.69509670  0.44950926  0.29056125     0.01000
C665        C  0.68628096  0.38769340  0.32154041     0.42600
N666        N  0.80683273  0.56210175  0.27926012    -0.25600
C667        C  0.78036545  0.41724352  0.16820995    -0.06500
N668        N  0.82036840  0.59894517  0.20298934    -0.46700
N669        N  0.67458684  0.41355633  0.29697830    -0.47000
C670        C  0.80992659  0.39343356  0.17698558     0.42400
N671        N  0.70716447  0.45174188  0.19728540     0.01200
N672        N  0.80816317  0.45272788  0.27822843    -0.25600
N673        N  0.77543819  0.56334613  0.19053840    -0.26100
N674        N  0.78881166  0.45130579  0.30226381     0.00900
H675        H  0.84855998  0.40875171  0.26555591     0.06800
H676        H  0.73176238  0.40315793  0.34932308     0.06800
N677        N  0.68786215  0.45101361  0.22136825    -0.26200
N678        N  0.71848254  0.55920115  0.31066814    -0.25800
N679        N  0.80040284  0.45371069  0.20896851     0.01200
C680        C  0.67440153  0.62255718  0.19000350     0.42600
C681        C  0.82689661  0.60042076  0.28309396    -0.07100
N682        N  0.71936467  0.44940081  0.30975466    -0.25800
H683        H  0.73105125  0.60597181  0.35002186     0.06800
N684        N  0.69938796  0.59789499  0.17827450    -0.47000
H685        H  0.84582557  0.61002344  0.26739997     0.06800
C686        C  0.82100686  0.39085164  0.31066609     0.42500
C687        C  0.77908859  0.60049150  0.16964984    -0.06500
Co688      Co  0.80442521  0.50804610  0.24399825     0.73800
N689        N  0.79301769  0.59753453  0.32380857    -0.46700
C690        C  0.67661980  0.38934768  0.18816101     0.42700
N691        N  0.82103208  0.41813736  0.20236081    -0.46700
Co692      Co  0.75362371  0.50517348  0.30720200     0.73900
C693        C  0.71601425  0.41145791  0.33014200    -0.07100
C694        C  0.66588272  0.59769552  0.21927496    -0.06600
N695        N  0.77641113  0.45396511  0.18941573    -0.26100
N696        N  0.67405616  0.59536691  0.29741002    -0.46900
H697        H  0.64880249  0.40374952  0.23363220     0.06700
C698        C  0.82937529  0.41595743  0.28141655    -0.07000
Cl699      Cl  0.74740499  0.50641368  0.25020914    -0.50000
C700        C  0.81754154  0.62390185  0.31257778     0.42500
H701        H  0.76471822  0.40892127  0.14891512     0.06700
N702        N  0.79573315  0.41498538  0.32229919    -0.46700
C703        C  0.66827126  0.27429058  0.09755969    -0.17900
C704        C  0.65159904  0.23812153  0.08037555    -0.20100
C705        C  0.62247858  0.22054717  0.09104060     0.20500
C706        C  0.61003260  0.23974719  0.11923988    -0.03000
C707        C  0.62692204  0.27589998  0.13665153    -0.06100
C708        C  0.65613525  0.29337959  0.12569912     0.20800
C709        C  0.61457104  0.29446809  0.16504701     0.19000
C710        C  0.58551452  0.27693276  0.17575707    -0.17600
C711        C  0.56870341  0.24134860  0.15842447    -0.19800
C712        C  0.58080015  0.22252287  0.13023404     0.20500
C713        C  0.56436948  0.18601423  0.11322816    -0.32800
C714        C  0.57693800  0.16554194  0.08563914     0.01200
C715        C  0.60581881  0.18349176  0.07437258    -0.24200
C716        C  0.67252458  0.32988270  0.14298052    -0.28700
C717        C  0.66010628  0.34894839  0.17106760     0.06800
C718        C  0.63131468  0.33060352  0.18212607    -0.27400
H719        H  0.69070414  0.28729731  0.08885079     0.11600
H720        H  0.66151899  0.22377727  0.05881258     0.12700
H721        H  0.57574774  0.29083082  0.19752469     0.11800
H722        H  0.54631812  0.22829232  0.16717542     0.11000
H723        H  0.54210784  0.17278846  0.12208608     0.16400
H724        H  0.61555941  0.16804908  0.05299939     0.12300
H725        H  0.69483105  0.34375325  0.13442862     0.15200
H726        H  0.62151438  0.34501118  0.20371977     0.14900
C727        C  0.57203298  0.25862131  0.36103623    -0.17900
C728        C  0.58846623  0.29526107  0.34420842    -0.20100
C729        C  0.62060703  0.30283585  0.34945163     0.20500
C730        C  0.63631471  0.27351479  0.37207506    -0.03000
C731        C  0.61970889  0.23669899  0.38914565    -0.06100
C732        C  0.58746172  0.22895986  0.38341448     0.20800
C733        C  0.63543144  0.20743036  0.41178336     0.19000
C734        C  0.66755197  0.21505601  0.41707552    -0.17600
C735        C  0.68402591  0.25141238  0.40008727    -0.19800
C736        C  0.66861531  0.28090659  0.37761858     0.20500
C737        C  0.68490873  0.31785064  0.36075872    -0.32800
C738        C  0.66935529  0.34745113  0.33836805     0.01200
C739        C  0.63727761  0.33939319  0.33262968    -0.24200
C740        C  0.57133948  0.19130523  0.39988171    -0.28700
C741        C  0.58695697  0.16179959  0.42226520     0.06800
C742        C  0.61887161  0.17057531  0.42841978    -0.27400
H743        H  0.54726922  0.25331933  0.35644371     0.11600
H744        H  0.57603533  0.31761335  0.32700552     0.12700
H745        H  0.67997949  0.19275256  0.43430131     0.11800
H746        H  0.70881416  0.25654480  0.40457585     0.10000
H747        H  0.70967176  0.32349940  0.36511143     0.16400
H748        H  0.62513031  0.36216717  0.31541450     0.12300
H749        H  0.54666291  0.18485012  0.39525446     0.15200
H750        H  0.63111286  0.14774892  0.44550239     0.14900
C751        C  0.65871166  0.72483163  0.09530709    -0.17900
C752        C  0.64265519  0.76221517  0.07887316    -0.20100
C753        C  0.61808589  0.78859948  0.09313088     0.20500
C754        C  0.60964791  0.77733601  0.12431772    -0.03000
C755        C  0.62588727  0.73965583  0.14092376    -0.06100
C756        C  0.65048101  0.71329303  0.12627711     0.20800
C757        C  0.61741749  0.72819367  0.17207674     0.19000
C758        C  0.59298358  0.75488170  0.18640453    -0.17600
C759        C  0.57686806  0.79225680  0.16993097    -0.19800
C760        C  0.58490872  0.80353317  0.13884677     0.20500
C761        C  0.56858489  0.84039764  0.12200773    -0.32800
C762        C  0.57682560  0.85167292  0.09091433     0.01200
C763        C  0.60172472  0.82587707  0.07671265    -0.24200
C764        C  0.66633178  0.67562544  0.14274478    -0.28700
C765        C  0.65784624  0.66353918  0.17361441     0.06800
C766        C  0.63343300  0.69009781  0.18822274    -0.27400
H767        H  0.67753929  0.70484241  0.08376589     0.11600
H768        H  0.64939918  0.77039120  0.05494610     0.12700
H769        H  0.58623452  0.74668831  0.21033095     0.11800
H770        H  0.55800567  0.81219043  0.18145205     0.11000
H771        H  0.54967514  0.86055085  0.13327685     0.16400
H772        H  0.60817505  0.83448872  0.05274318     0.12300
H773        H  0.68510753  0.65527529  0.13132973     0.15200
H774        H  0.62685906  0.68123049  0.21209850     0.14900
C775        C  0.83129109  0.29618653  0.08070790    -0.17900
C776        C  0.84812136  0.25911230  0.06474442    -0.20100
C777        C  0.87122555  0.23111004  0.08028867     0.20500
C778        C  0.87765253  0.24077056  0.11217695    -0.03000
C779        C  0.86066980  0.27823659  0.12829794    -0.06100
C780        C  0.83729205  0.30589942  0.11248507     0.20800
C781        C  0.86708216  0.28800726  0.16018890     0.19000
C782        C  0.89027103  0.26008696  0.17569633    -0.17600
C783        C  0.90706900  0.22287833  0.15972046    -0.19800
C784        C  0.90097355  0.21294312  0.12796041     0.20500
C785        C  0.91758090  0.17549327  0.11174481    -0.32800
C786        C  0.91093141  0.16521996  0.08005658     0.01200
C787        C  0.88785621  0.19344959  0.06450147    -0.24200
C788        C  0.82041702  0.34290785  0.12867269    -0.28700
C789        C  0.82690361  0.35315158  0.16034075     0.06800
C790        C  0.85027717  0.32562520  0.17594673    -0.27400
H791        H  0.81352314  0.31722613  0.06819747     0.11600
H792        H  0.84298325  0.25220644  0.04022908     0.12700
H793        H  0.89542970  0.26705254  0.20019635     0.11800
H794        H  0.92483558  0.20182335  0.17223129     0.11000
H795        H  0.93534005  0.15386502  0.12390816     0.16400
H796        H  0.88274757  0.18623685  0.04002986     0.12300
H797        H  0.80265725  0.36435050  0.11641596     0.15200
H798        H  0.85527458  0.33335298  0.20041300     0.14900
C799        C  0.83463538  0.79774387  0.40821451    -0.17900
C800        C  0.81848726  0.76006550  0.39174116    -0.20100
C801        C  0.83400140  0.73065990  0.36926130     0.20500
C802        C  0.86607131  0.73935796  0.36331039    -0.03000
C803        C  0.88232811  0.77718991  0.37993661    -0.06100
C804        C  0.86657311  0.80657451  0.40250771     0.20800
C805        C  0.91439411  0.78559549  0.37389468     0.19000
C806        C  0.92997584  0.75609930  0.35161393    -0.17600
C807        C  0.91389294  0.71868734  0.33514431    -0.19800
C808        C  0.88196793  0.71025414  0.34070838     0.20500
C809        C  0.86574309  0.67313191  0.32400933    -0.32800
C810        C  0.83391340  0.66413089  0.32982671     0.01200
C811        C  0.81813973  0.69271305  0.35259721    -0.24200
C812        C  0.88308788  0.84427343  0.41880490    -0.28700
C813        C  0.91500837  0.85301015  0.41252177     0.06800
C814        C  0.93041820  0.82339776  0.39015162    -0.27400
H815        H  0.82214394  0.81997809  0.42541931     0.11600
H816        H  0.79386312  0.75394804  0.39656258     0.12700
H817        H  0.95463500  0.76208086  0.34684030     0.11800
H818        H  0.92639883  0.69644734  0.31797919     0.11000
H819        H  0.87810380  0.65066229  0.30685083     0.16400
H820        H  0.79352436  0.68569597  0.35710259     0.12300
H821        H  0.87106451  0.86710457  0.43606234     0.15200
H822        H  0.95505539  0.82946005  0.38540725     0.14900
C823        C  0.91065190  0.27356123  0.31935490    -0.17900
C824        C  0.92680643  0.23599179  0.33564873    -0.20100
C825        C  0.91480343  0.21662789  0.36376454     0.20500
C826        C  0.88612267  0.23499878  0.37543494    -0.03000
C827        C  0.86981885  0.27285815  0.35898747    -0.06100
C828        C  0.88220106  0.29235446  0.33087202     0.20800
C829        C  0.84125030  0.29142775  0.37082314     0.19000
C830        C  0.82912084  0.27179651  0.39877942    -0.17600
C831        C  0.84526450  0.23431168  0.41506642    -0.19800
C832        C  0.87381001  0.21582661  0.40366691     0.20500
C833        C  0.89031855  0.17873324  0.42011616    -0.32800
C834        C  0.91902756  0.16049375  0.40880557     0.01200
C835        C  0.93106464  0.17947644  0.38050588    -0.24200
C836        C  0.86603078  0.33051787  0.31491927    -0.28700
C837        C  0.83768325  0.34953770  0.32678891     0.06800
C838        C  0.82541031  0.32955796  0.35465513    -0.27400
H839        H  0.92048633  0.28806143  0.29779375     0.11600
H840        H  0.94876764  0.22225898  0.32633613     0.12700
H841        H  0.80718403  0.28562028  0.40814088     0.11800
H842        H  0.83548181  0.21992430  0.43668159     0.11000
H843        H  0.88083289  0.16420770  0.44184956     0.16400
H844        H  0.95307984  0.16560798  0.37147339     0.12300
H845        H  0.87573870  0.34561706  0.29348933     0.15200
H846        H  0.80353787  0.34389642  0.36391263     0.14900
C847        C  0.57763543  0.77093446  0.34799158    -0.17900
C848        C  0.59455545  0.73468374  0.33130257    -0.20100
C849        C  0.62329760  0.71691534  0.34282654     0.20500
C850        C  0.63517330  0.73601025  0.37136035    -0.03000
C851        C  0.61805384  0.77238065  0.38824222    -0.06100
C852        C  0.58915531  0.78998993  0.37649515     0.20800
C853        C  0.62991116  0.79115192  0.41685191     0.19000
C854        C  0.65874802  0.77371130  0.42826544    -0.17600
C855        C  0.67574663  0.73782184  0.41150348    -0.19800
C856        C  0.66411643  0.71866105  0.38312136     0.20500
C857        C  0.68080515  0.68202256  0.36653506    -0.32800
C858        C  0.66884029  0.66202997  0.33845870     0.01200
C859        C  0.64022867  0.68003545  0.32654525    -0.24200
C860        C  0.57249042  0.82663181  0.39333572    -0.28700
C861        C  0.58435784  0.84581674  0.42174909     0.06800
C862        C  0.61292878  0.82741957  0.43345879    -0.27400
H863        H  0.55551469  0.78406948  0.33859933     0.11600
H864        H  0.58512672  0.72046175  0.30940611     0.12700
H865        H  0.66819278  0.78789294  0.45016159     0.11800
H866        H  0.69793498  0.72489675  0.42081045     0.11000
H867        H  0.70282224  0.66857635  0.37588166     0.16400
H868        H  0.63094189  0.66494385  0.30479057     0.12300
H869        H  0.55043225  0.84053097  0.38418606     0.15200
H870        H  0.62237275  0.84180328  0.45526131     0.14900
C871        C  0.90533212  0.72362397  0.16053433    -0.17900
C872        C  0.92188855  0.76052151  0.14402847    -0.20100
C873        C  0.90785748  0.78566119  0.11875495     0.20500
C874        C  0.87705022  0.77276144  0.10963847    -0.03000
C875        C  0.86031460  0.73566778  0.12635588    -0.06100
C876        C  0.87444677  0.71129526  0.15208469     0.20800
C877        C  0.82934626  0.72335774  0.11750134     0.19000
C878        C  0.81557073  0.74763600  0.09178253    -0.17600
C879        C  0.83216272  0.78429987  0.07518398    -0.19800
C880        C  0.86279785  0.79735808  0.08406798     0.20500
C881        C  0.87920804  0.83512366  0.06810049    -0.32800
C882        C  0.90958272  0.84914653  0.07754752     0.01200
C883        C  0.92388364  0.82391927  0.10271367    -0.24200
C884        C  0.85740689  0.67520308  0.16895748    -0.28700
C885        C  0.82646180  0.66295223  0.16037924     0.06800
C886        C  0.81264305  0.68715972  0.13456940    -0.27400
H887        H  0.91660655  0.70501306  0.18010344     0.11600
H888        H  0.94558743  0.76971059  0.15120761     0.12700
H889        H  0.79185930  0.73847004  0.08459976     0.11800
H890        H  0.82093234  0.80275900  0.05555364     0.11000
H891        H  0.86792889  0.85434890  0.04881015     0.16400
H892        H  0.94739757  0.83430234  0.10994863     0.12300
H893        H  0.86830559  0.65652179  0.18873025     0.15200
H894        H  0.78884072  0.67807324  0.12773313     0.14900
C895        C  0.55982835  0.89089057  0.57336897     0.42300
N896        N  0.55052408  0.95026340  0.54076026     0.01200
C897        C  0.91868958  0.10122095  0.53343269    -0.06600
H898        H  0.89765091  0.90852205  0.51689787     0.06700
C899        C  0.96267590  0.91497084  0.92015110    -0.07000
Co900      Co  0.99250559  0.00695883  0.55744249     0.74200
N901        N  0.93755338  0.95395959  0.52959362    -0.26200
Co902      Co  0.94081759  0.00865308  0.99480488     0.74100
C903        C  0.93242099  0.89329927  0.92885849     0.42400
N904        N  0.53713307  0.94888479  0.94747644     0.00900
N905        N  0.94351002  0.95356700  0.96032429     0.01000
N906        N  0.95213894  0.09830190  0.57460890    -0.47000
H907        H  0.51510728  0.90857250  0.60149602     0.06700
N908        N  0.95733242  0.95270731  0.55338905     0.01200
N909        N  0.94560844  0.06287703  0.95981932     0.01000
C910        C  0.93609977  0.12137436  0.92654631     0.42600
N911        N  0.55678739  0.94892306  0.97138098    -0.25600
C912        C  0.53120250  0.09976528  0.57910421    -0.06500
N913        N  0.57095811  0.91453957  0.54770832    -0.46700
N914        N  0.92507119  0.09822852  0.95246008    -0.47000
C915        C  0.56047992  0.12382131  0.56964622     0.42400
N916        N  0.95842042  0.06277793  0.55370390     0.01200
N917        N  0.55850714  0.05837447  0.97084598    -0.25600
N918        N  0.52675714  0.95165621  0.56042861    -0.26100
N919        N  0.53872673  0.05936451  0.94706200     0.00900
H920        H  0.59866438  0.10366242  0.98320190     0.06800
H921        H  0.98070162  0.10271114  0.89840350     0.06800
N922        N  0.93906589  0.06350944  0.52958011    -0.26200
N923        N  0.96747283  0.95205557  0.94087703    -0.25800
N924        N  0.55170779  0.06020909  0.53994610     0.01200
C925        C  0.92594371  0.89103902  0.56169157     0.42600
C926        C  0.57691154  0.91077621  0.96795646    -0.07100
N927        N  0.96932238  0.06104012  0.94007497    -0.25800
H928        H  0.97786203  0.90607406  0.90069628     0.06800
N929        N  0.95120376  0.91568158  0.57323132    -0.47000
H930        H  0.59607424  0.90240867  0.98369656     0.06800
C931        C  0.57027284  0.12071959  0.93848193     0.42500
C932        C  0.53051759  0.91548135  0.58189856    -0.06500
Co933      Co  0.55508565  0.00434284  0.50580592     0.73800
N934        N  0.54291530  0.91222656  0.92719595    -0.46700
C935        C  0.92744769  0.12436478  0.56329271     0.42700
N936        N  0.57198827  0.09706965  0.54533747    -0.46700
Co937      Co  0.50331411  0.00526867  0.94319505     0.73900
C938        C  0.96548138  0.09667975  0.91825042    -0.07100
C939        C  0.91677994  0.91650016  0.53279962    -0.06600
N940        N  0.52776916  0.06094156  0.55943492    -0.26100
N941        N  0.92184771  0.91931864  0.95382807    -0.46900
H942        H  0.89938610  0.10965868  0.51788167     0.06700
C943        C  0.57944402  0.09555348  0.96741570    -0.07000
Cl944      Cl  0.49792012  0.00628250  0.50029445    -0.50000
C945        C  0.56764843  0.88635143  0.93863623     0.42500
H946        H  0.51524796  0.10919315  0.59782011     0.06700
N947        N  0.54492226  0.09616159  0.92706866    -0.46700
C948        C  0.80897154  0.62408730  0.67797792     0.42300
N949        N  0.79962923  0.56352008  0.70983095     0.01200
C950        C  0.66766910  0.41285522  0.71776000    -0.06600
H951        H  0.64670856  0.60524322  0.73509625     0.06700
C952        C  0.71505692  0.59708945  0.83112055    -0.07000
Co953      Co  0.74112854  0.50768442  0.69319941     0.74200
N954        N  0.68677499  0.56040700  0.72235310    -0.26200
Co955      Co  0.69034937  0.50498585  0.75648194     0.74100
C956        C  0.68557090  0.62109699  0.82217757     0.42400
N957        N  0.78739727  0.56123961  0.80324562     0.00900
N958        N  0.69438756  0.55918025  0.79128569     0.01000
N959        N  0.70115555  0.41560778  0.67673788    -0.47000
H960        H  0.76348565  0.60811442  0.65025062     0.06700
N961        N  0.70609034  0.56151990  0.69828890     0.01200
N962        N  0.69509722  0.44950887  0.79056198     0.01000
C963        C  0.68628158  0.38769333  0.82154139     0.42600
N964        N  0.80683294  0.56210165  0.77926038    -0.25600
C965        C  0.78036568  0.41724385  0.66820995    -0.06500
N966        N  0.82036800  0.59894571  0.70298957    -0.46700
N967        N  0.67458737  0.41355600  0.79697922    -0.47000
C968        C  0.80992697  0.39343425  0.67698541     0.42400
N969        N  0.70716457  0.45174132  0.69728614     0.01200
N970        N  0.80816358  0.45272783  0.77822840    -0.25600
N971        N  0.77543796  0.56334612  0.69053869    -0.26100
N972        N  0.78881218  0.45130554  0.80226387     0.00900
H973        H  0.84856009  0.40875127  0.76555526     0.06800
H974        H  0.73176302  0.40315814  0.84932383     0.06800
N975        N  0.68786238  0.45101303  0.72136907    -0.26200
N976        N  0.71848309  0.55920072  0.81066881    -0.25800
N977        N  0.80040303  0.45371102  0.70896853     0.01200
C978        C  0.67440148  0.62255713  0.69000439     0.42600
C979        C  0.82689669  0.60042080  0.78309414    -0.07100
N980        N  0.71936524  0.44940053  0.80975527    -0.25800
H981        H  0.73105204  0.60597158  0.85002243     0.06800
N982        N  0.69938782  0.59789480  0.67827528    -0.47000
H983        H  0.84582554  0.61002374  0.76739999     0.06800
C984        C  0.82100710  0.39085082  0.81066553     0.42500
C985        C  0.77908813  0.60049160  0.66965015    -0.06500
Co986      Co  0.80442537  0.50804623  0.74399839     0.73800
N987        N  0.79301798  0.59753422  0.82380893    -0.46700
C988        C  0.67661990  0.38934701  0.68816195     0.42700
N989        N  0.82103246  0.41813804  0.70236064    -0.46700
Co990      Co  0.75362422  0.50517313  0.80720242     0.73900
C991        C  0.71601489  0.41145786  0.83014283    -0.07100
C992        C  0.66588271  0.59769525  0.71927580    -0.06600
N993        N  0.77641125  0.45396522  0.68941588    -0.26100
N994        N  0.67405672  0.59536652  0.79741077    -0.46900
H995        H  0.64880280  0.40374894  0.73363325     0.06700
C996        C  0.82937556  0.41595711  0.78141617    -0.07000
Cl997      Cl  0.74740521  0.50641340  0.75020958    -0.50000
C998        C  0.81754166  0.62390176  0.81257799     0.42500
H999        H  0.76471844  0.40892150  0.64891513     0.06700
N1000       N  0.79573357  0.41498467  0.82229893    -0.46700
C1001       C  0.66826882  0.27429523  0.59755833    -0.17900
C1002       C  0.65159639  0.23812647  0.58037414    -0.20100
C1003       C  0.62247692  0.22054973  0.59104038     0.20500
C1004       C  0.61003207  0.23974722  0.61924082    -0.03000
C1005       C  0.62692171  0.27589972  0.63665250    -0.06100
C1006       C  0.65613397  0.29338160  0.62569896     0.20800
C1007       C  0.61457178  0.29446552  0.66504905     0.19000
C1008       C  0.58551613  0.27692806  0.67576011    -0.17600
C1009       C  0.56870488  0.24134402  0.65842758    -0.19800
C1010       C  0.58080055  0.22252060  0.63023608     0.20500
C1011       C  0.56436987  0.18601193  0.61323024    -0.32800
C1012       C  0.57693740  0.16554203  0.58564008     0.01200
C1013       C  0.60581714  0.18349437  0.57437237    -0.24200
C1014       C  0.67252346  0.32988449  0.64298037    -0.28700
C1015       C  0.66010625  0.34894783  0.67106857     0.06800
C1016       C  0.63131559  0.33060081  0.68212808    -0.27400
H1017       H  0.69070089  0.28730378  0.58884848     0.11600
H1018       H  0.66151542  0.22378424  0.55881026     0.12700
H1019       H  0.57575011  0.29082440  0.69752858     0.11800
H1020       H  0.54632033  0.22828590  0.66717940     0.11000
H1021       H  0.54210901  0.17278403  0.62208914     0.16400
H1022       H  0.61555692  0.16805366  0.55299826     0.12300
H1023       H  0.69482915  0.34375683  0.63442755     0.15200
H1024       H  0.62151610  0.34500667  0.70372268     0.14900
C1025       C  0.57203360  0.25862072  0.86103590    -0.17900
C1026       C  0.58846702  0.29526037  0.84420819    -0.20100
C1027       C  0.62060770  0.30283548  0.84945200     0.20500
C1028       C  0.63631509  0.27351480  0.87207576    -0.03000
C1029       C  0.61970908  0.23669903  0.88914620    -0.06100
C1030       C  0.58746201  0.22895959  0.88341450     0.20800
C1031       C  0.63543133  0.20743080  0.91178427     0.19000
C1032       C  0.66755173  0.21505679  0.91707700    -0.17600
C1033       C  0.68402587  0.25141322  0.90008894    -0.19800
C1034       C  0.66861554  0.28090700  0.87761985     0.20500
C1035       C  0.68490918  0.31785114  0.86076017    -0.32800
C1036       C  0.66935590  0.34745123  0.83836914     0.01200
C1037       C  0.63727838  0.33939293  0.83263028    -0.24200
C1038       C  0.57133964  0.19130491  0.89988153    -0.28700
C1039       C  0.58695687  0.16179957  0.92226533     0.06800
C1040       C  0.61887135  0.17057575  0.92842049    -0.27400
H1041       H  0.54726986  0.25331856  0.85644296     0.11600
H1042       H  0.57603641  0.31761226  0.82700502     0.12700
H1043       H  0.67997900  0.19275367  0.93430304     0.11800
H1044       H  0.70881394  0.25654593  0.90457798     0.10000
H1045       H  0.70967195  0.32350017  0.86511325     0.16400
H1046       H  0.62513128  0.36216661  0.81541486     0.12300
H1047       H  0.54666314  0.18484947  0.89525384     0.15200
H1048       H  0.63111242  0.14774958  0.94550340     0.14900
C1049       C  0.65871467  0.72483630  0.59530946    -0.17900
C1050       C  0.64265824  0.76221972  0.57887535    -0.20100
C1051       C  0.61808769  0.78860210  0.59313242     0.20500
C1052       C  0.60964838  0.77733663  0.62431859    -0.03000
C1053       C  0.62588764  0.73965644  0.64092471    -0.06100
C1054       C  0.65048269  0.71329570  0.62627879     0.20800
C1055       C  0.61741648  0.72819219  0.67207701     0.19000
C1056       C  0.59298129  0.75487820  0.68640407    -0.17600
C1057       C  0.57686581  0.79225321  0.66993041    -0.19800
C1058       C  0.58490788  0.80353166  0.63884688     0.20500
C1059       C  0.56858409  0.84039608  0.62200773    -0.32800
C1060       C  0.57682612  0.85167337  0.59091495     0.01200
C1061       C  0.60172658  0.82587968  0.57671405    -0.24200
C1062       C  0.66633335  0.67562802  0.64274651    -0.28700
C1063       C  0.65784641  0.66353962  0.67361545     0.06800
C1064       C  0.63343191  0.69009630  0.68822306    -0.27400
H1065       H  0.67754338  0.70484864  0.58376881     0.11600
H1066       H  0.64940319  0.77039717  0.55494891     0.12700
H1067       H  0.58623118  0.74668326  0.71033001     0.11800
H1068       H  0.55800235  0.81218519  0.68145089     0.11000
H1069       H  0.54967335  0.86054742  0.63327622     0.16400
H1070       H  0.60817795  0.83449281  0.55274517     0.12300
H1071       H  0.68511004  0.65527947  0.63133204     0.15200
H1072       H  0.62685683  0.68122736  0.71209824     0.14900
C1073       C  0.83129159  0.29618755  0.58070757    -0.17900
C1074       C  0.84812193  0.25911338  0.56474407    -0.20100
C1075       C  0.87122625  0.23111130  0.58028829     0.20500
C1076       C  0.87765335  0.24077205  0.61217651    -0.03000
C1077       C  0.86067059  0.27823805  0.62829751    -0.06100
C1078       C  0.83729269  0.30590064  0.61248470     0.20800
C1079       C  0.86708296  0.28800871  0.66018846     0.19000
C1080       C  0.89027188  0.26008850  0.67569588    -0.17600
C1081       C  0.90706990  0.22288001  0.65971999    -0.19800
C1082       C  0.90097443  0.21294474  0.62795997     0.20500
C1083       C  0.91758171  0.17549472  0.61174444    -0.32800
C1084       C  0.91093199  0.16522100  0.58005632     0.01200
C1085       C  0.88785680  0.19345061  0.56450115    -0.24200
C1086       C  0.82041755  0.34290887  0.62867240    -0.28700
C1087       C  0.82690414  0.35315255  0.66034048     0.06800
C1088       C  0.85027787  0.32562644  0.67594636    -0.27400
H1089       H  0.81352348  0.31722685  0.56819721     0.11600
H1090       H  0.84298373  0.25220736  0.54022877     0.12700
H1091       H  0.89543051  0.26705405  0.70019589     0.11800
H1092       H  0.92483654  0.20182508  0.67223084     0.11000
H1093       H  0.93534084  0.15386657  0.62390780     0.16400
H1094       H  0.88274803  0.18623756  0.54002964     0.12300
H1095       H  0.80265764  0.36435131  0.61641574     0.15200
H1096       H  0.85527531  0.33335421  0.70041262     0.14900
C1097       C  0.83463493  0.79774519  0.90821364    -0.17900
C1098       C  0.81848683  0.76006697  0.89174015    -0.20100
C1099       C  0.83400118  0.73066053  0.86926091     0.20500
C1100       C  0.86607133  0.73935764  0.86331065    -0.03000
C1101       C  0.88232811  0.77718957  0.87993687    -0.06100
C1102       C  0.86657289  0.80657495  0.90250744     0.20800
C1103       C  0.91439431  0.78559426  0.87389553     0.19000
C1104       C  0.92997630  0.75609717  0.85161539    -0.17600
C1105       C  0.91389340  0.71868521  0.83514579    -0.19800
C1106       C  0.88196821  0.71025290  0.84070926     0.20500
C1107       C  0.86574340  0.67313066  0.82401023    -0.32800
C1108       C  0.83391349  0.66413073  0.82982690     0.01200
C1109       C  0.81813953  0.69271378  0.85259674    -0.24200
C1110       C  0.88308768  0.84427384  0.91880462    -0.28700
C1111       C  0.91500835  0.85300973  0.91252202     0.06800
C1112       C  0.93041843  0.82339647  0.89015250    -0.27400
H1113       H  0.82214334  0.81998003  0.92541796     0.11600
H1114       H  0.79386239  0.75395027  0.89656101     0.12700
H1115       H  0.95463561  0.76207793  0.84684228     0.11800
H1116       H  0.92639948  0.69644444  0.81798115     0.11000
H1117       H  0.87810429  0.65066016  0.80685226     0.16400
H1118       H  0.79352398  0.68569740  0.85710153     0.12300
H1119       H  0.87106412  0.86710574  0.93606163     0.15200
H1120       H  0.95505573  0.82945803  0.88540869     0.14900
C1121       C  0.91065208  0.27356051  0.81935435    -0.17900
C1122       C  0.92680664  0.23599110  0.83564817    -0.20100
C1123       C  0.91480327  0.21662651  0.86376366     0.20500
C1124       C  0.88612212  0.23499645  0.87543361    -0.03000
C1125       C  0.86981834  0.27285588  0.85898617    -0.06100
C1126       C  0.88220096  0.29235303  0.83087111     0.20800
C1127       C  0.84124953  0.29142483  0.87082153     0.19000
C1128       C  0.82911959  0.27179268  0.89877736    -0.17600
C1129       C  0.84526321  0.23430775  0.91506432    -0.19800
C1130       C  0.87380909  0.21582353  0.90366523     0.20500
C1131       C  0.89031776  0.17873054  0.92011465    -0.32800
C1132       C  0.91902728  0.16049226  0.90880463     0.01200
C1133       C  0.93106464  0.17947548  0.88050520    -0.24200
C1134       C  0.86603083  0.33051673  0.81491847    -0.28700
C1135       C  0.83768311  0.34953607  0.82678791     0.06800
C1136       C  0.82540970  0.32955541  0.85465367    -0.27400
H1137       H  0.92048684  0.28806143  0.79779346     0.11600
H1138       H  0.94876805  0.22225904  0.82633595     0.12700
H1139       H  0.80718255  0.28561585  0.90813849     0.11800
H1140       H  0.83548024  0.21991975  0.93667925     0.11000
H1141       H  0.88083185  0.16420449  0.94184784     0.16400
H1142       H  0.95308025  0.16560787  0.87147310     0.12300
H1143       H  0.87573911  0.34561673  0.79348896     0.15200
H1144       H  0.80353715  0.34389349  0.86391097     0.14900
C1145       C  0.57763646  0.77093480  0.84799120    -0.17900
C1146       C  0.59455644  0.73468385  0.83130244    -0.20100
C1147       C  0.62329843  0.71691525  0.84282671     0.20500
C1148       C  0.63517400  0.73601028  0.87136053    -0.03000
C1149       C  0.61805456  0.77238088  0.88824216    -0.06100
C1150       C  0.58915613  0.78999033  0.87649481     0.20800
C1151       C  0.62991165  0.79115211  0.91685197     0.19000
C1152       C  0.65874834  0.77371121  0.92826576    -0.17600
C1153       C  0.67574700  0.73782166  0.91150400    -0.19800
C1154       C  0.66411699  0.71866082  0.88312183     0.20500
C1155       C  0.68080567  0.68202210  0.86653572    -0.32800
C1156       C  0.66884098  0.66202961  0.83845929     0.01200
C1157       C  0.64022947  0.68003518  0.82654563    -0.24200
C1158       C  0.57249115  0.82663216  0.89333526    -0.28700
C1159       C  0.58435831  0.84581696  0.92174877     0.06800
C1160       C  0.61292918  0.82741980  0.93345869    -0.27400
H1161       H  0.55551570  0.78406995  0.83859871     0.11600
H1162       H  0.58512782  0.72046174  0.80940595     0.12700
H1163       H  0.66819297  0.78789283  0.95016215     0.11800
H1164       H  0.69793530  0.72489635  0.92081119     0.11000
H1165       H  0.70282269  0.66857561  0.87588251     0.16400
H1166       H  0.63094280  0.66494358  0.80479092     0.12300
H1167       H  0.55043305  0.84053138  0.88418539     0.15200
H1168       H  0.62237296  0.84180349  0.95526126     0.14900
C1169       C  0.90533078  0.72362624  0.66053577    -0.17900
C1170       C  0.92188738  0.76052345  0.64402981    -0.20100
C1171       C  0.90785674  0.78566216  0.61875571     0.20500
C1172       C  0.87704965  0.77276200  0.60963885    -0.03000
C1173       C  0.86031386  0.73566856  0.62635631    -0.06100
C1174       C  0.87444570  0.71129685  0.65208558     0.20800
C1175       C  0.82934576  0.72335782  0.61750128     0.19000
C1176       C  0.81557056  0.74763542  0.59178206    -0.17600
C1177       C  0.83216267  0.78429921  0.57518351    -0.19800
C1178       C  0.86279765  0.79735786  0.58406788     0.20500
C1179       C  0.87920805  0.83512307  0.56810023    -0.32800
C1180       C  0.90958262  0.84914624  0.57754757     0.01200
C1181       C  0.92388315  0.82391969  0.60271419    -0.24200
C1182       C  0.85740580  0.67520464  0.66895826    -0.28700
C1183       C  0.82646103  0.66295289  0.66037951     0.06800
C1184       C  0.81264250  0.68715966  0.63456925    -0.27400
H1185       H  0.91660489  0.70501602  0.68010523     0.11600
H1186       H  0.94558608  0.76971290  0.65120930     0.12700
H1187       H  0.79185931  0.73846897  0.58459892     0.11800
H1188       H  0.82093256  0.80275778  0.55555283     0.11000
H1189       H  0.86792920  0.85434772  0.54880954     0.16400
H1190       H  0.94739700  0.83430303  0.60994946     0.12300
H1191       H  0.86830430  0.65652395  0.68873140     0.15200
H1192       H  0.78884044  0.67807246  0.62773259     0.14900
loop_ 
_geom_bond_atom_site_label_1 
_geom_bond_atom_site_label_2 
_geom_bond_distance 
_geom_bond_site_symmetry_2 
_ccdc_geom_bond_type 
C1           N19   1.351       .  A
C1           C38   1.460       .  S
C1          C166   1.476       .  S
N2           N19   1.324       .  A
N2           N24   1.319       .  A
N2          Co39   2.083   1_565  S
C3           N28   1.339       .  A
C3           C41   1.461       .  S
C3           H48   1.081       .  S
H4           C45   1.081       .  S
C5           N29   1.338       .  A
C5            C9   1.462       .  S
C5           H34   1.081       .  S
Co6          N14   2.086   1_545  S
Co6          N22   2.086       .  S
Co6         N620   2.079   1_545  S
Co6         N642   2.078       .  S
Co6        Cl646   2.451       .  S
N7           C45   1.339       .  A
N7           N14   1.320       .  A
N7         Co306   2.084   1_564  S
Co8          N11   2.077   1_545  S
Co8          N15   2.087       .  S
Co8         N305   2.084   1_545  S
Co8         N326   2.080       .  S
Co8        Cl944   2.450       .  S
C9           N47   1.349       .  A
C9          C217   1.475       .  S
N10          N17   1.319       .  A
N10          N40   1.326       .  A
N10         Co43   2.091   1_565  S
N11          N29   1.320       .  A
N11          N47   1.324       .  A
N12          C41   1.351       .  A
N12          N22   1.326       .  A
H13          C38   1.081       .  S
N14          N35   1.325       .  A
N15          N33   1.320       .  A
N15          N20   1.324       .  A
C16          N20   1.352       .  A
C16          C44   1.461       .  S
C16         C238   1.480       .  S
N17          C32   1.338       .  A
N17        Co337   2.080   1_565  S
C18          N46   1.336       .  A
C18          C21   1.461       .  S
C18          H52   1.081       .  S
C21          N42   1.351       .  A
C21         C118   1.476       .  S
N22          N28   1.319       .  A
N23          C49   1.339       .  A
N23          N25   1.319       .  A
N23        Co337   2.078       .  S
N24          C38   1.339       .  A
N24        Co602   2.079   1_465  S
N25          N53   1.326       .  A
N25         Co43   2.090       .  S
H26          C49   1.081       .  S
H27          C44   1.081       .  S
N28        Co306   2.080   1_554  S
N29        Co639   2.083   1_565  S
N30          N42   1.325       .  A
N30          N46   1.320       .  A
N30         Co39   2.083       .  S
C31          N35   1.352       .  A
C31          C45   1.461       .  S
C31         C286   1.479       .  S
C32          C51   1.462       .  S
C32          H36   1.081       .  S
N33          C44   1.340       .  A
N33        Co639   2.081       .  S
C37          N53   1.352       .  A
C37          C49   1.459       .  S
C37         C145   1.476       .  S
Co39        N315   2.080   1_544  S
Co39        N321   2.078   1_554  S
Co39        Cl50   2.452   1_455  S
N40          C51   1.352       .  A
C41         C190   1.480       .  S
Co43        N625   2.083   1_445  S
Co43        N629   2.081   1_455  S
Co43       Cl348   2.449   1_455  S
N46        Co602   2.078   1_455  S
Cl50       Co602   2.451       .  S
Cl50       Co902   2.450   1_554  S
Cl50       Co341   2.449   1_654  S
C51         C265   1.480       .  S
C54          N72   1.351       .  A
C54          C91   1.463       .  S
C54         C289   1.480       .  S
N55          N72   1.324       .  A
N55          N77   1.319       .  A
N55         Co92   2.086       .  S
C56          N81   1.338       .  A
C56          C94   1.460       .  S
C56         H101   1.081       .  S
H57          C98   1.081       .  S
C58          N82   1.340       .  A
C58          C62   1.463       .  S
C58          H87   1.081       .  S
Co59         N77   2.082       .  S
Co59         N67   2.084       .  S
Co59         N99   2.084       .  S
Co59         N75   2.082       .  S
Co59       Cl103   2.448       .  S
N60          C98   1.341       .  A
N60          N67   1.319       .  A
N60         Co61   2.079       .  S
Co61         N64   2.073       .  S
Co61         N81   2.075       .  S
Co61         N68   2.083       .  S
Co61       Cl103   2.451       .  S
C62         N100   1.349       .  A
C62         C262   1.476       .  S
N63          N70   1.320       .  A
N63          N93   1.324       .  A
N63         Co96   2.078       .  S
N64          N82   1.319       .  A
N64         N100   1.323       .  A
N65          C94   1.350       .  A
N65          N75   1.323       .  A
H66          C91   1.081       .  S
N67          N88   1.323       .  A
N68          N86   1.319       .  A
N68          N73   1.324       .  A
C69          N73   1.350       .  A
C69          C97   1.462       .  S
C69         C142   1.478       .  S
N70          C85   1.338       .  A
N70         Co92   2.080       .  S
C71          N99   1.341       .  A
C71          C74   1.461       .  S
C71         H105   1.081       .  S
C74          N95   1.350       .  A
C74         C193   1.476       .  S
N75          N81   1.319       .  A
N76         C102   1.341       .  A
N76          N78   1.319       .  A
N76         Co92   2.081       .  S
N77          C91   1.340       .  A
N78         N106   1.324       .  A
N78         Co96   2.088       .  S
H79         C102   1.081       .  S
H80          C97   1.081       .  S
N82         Co96   2.084       .  S
N83          N95   1.324       .  A
N83          N99   1.320       .  A
N83         Co92   2.083       .  S
C84          N88   1.350       .  A
C84          C98   1.461       .  S
C84         C169   1.476       .  S
C85         C104   1.460       .  S
C85          H89   1.081       .  S
N86          C97   1.341       .  A
N86         Co96   2.083       .  S
C90         N106   1.352       .  A
C90         C102   1.461       .  S
C90         C241   1.480       .  S
Co92       Cl103   2.450       .  S
N93         C104   1.348       .  A
C94         C121   1.474       .  S
Co96       Cl103   2.447       .  S
C104        C214   1.471       .  S
C107        H123   1.084       .  S
C107        C108   1.400       .  A
C107        C112   1.404       .  A
C108        H124   1.083       .  S
C108        C109   1.404       .  A
C109        C119   1.404       .  A
C109        C110   1.412       .  A
C110        C116   1.410       .  A
C110        C111   1.409       .  A
C111        C113   1.412       .  A
C111        C112   1.411       .  A
C112        C120   1.402       .  A
C113        C122   1.398       .  A
C113        C114   1.402       .  A
C114        H125   1.084       .  S
C114        C115   1.396       .  A
C115        H126   1.083       .  S
C115        C116   1.402       .  A
C116        C117   1.397       .  A
C117        H127   1.082       .  S
C117        C118   1.404       .  A
C118        C119   1.407       .  A
C119        H128   1.084       .  S
C120        H129   1.085       .  S
C120        C121   1.406       .  A
C121        C122   1.404       .  A
C122        H130   1.083       .  S
C131        H147   1.084       .  S
C131        C132   1.399       .  A
C131        C136   1.403       .  A
C132        H148   1.084       .  S
C132        C133   1.404       .  A
C133        C143   1.403       .  A
C133        C134   1.411       .  A
C134        C140   1.412       .  A
C134        C135   1.412       .  A
C135        C137   1.411       .  A
C135        C136   1.412       .  A
C136        C144   1.404       .  A
C137        C146   1.402       .  A
C137        C138   1.403       .  A
C138        H149   1.084       .  S
C138        C139   1.398       .  A
C139        H150   1.083       .  S
C139        C140   1.403       .  A
C140        C141   1.403       .  A
C141        H151   1.083       .  S
C141        C142   1.405       .  A
C142        C143   1.406       .  A
C143        H152   1.085       .  S
C144        H153   1.085       .  S
C144        C145   1.405       .  A
C145        C146   1.406       .  A
C146        H154   1.084       .  S
C155        H171   1.083       .  S
C155        C156   1.397       .  A
C155        C160   1.403       .  A
C156        H172   1.084       .  S
C156        C157   1.403       .  A
C157        C167   1.401       .  A
C157        C158   1.412       .  A
C158        C164   1.411       .  A
C158        C159   1.410       .  A
C159        C161   1.412       .  A
C159        C160   1.410       .  A
C160        C168   1.399       .  A
C161        C170   1.404       .  A
C161        C162   1.404       .  A
C162        H173   1.084       .  S
C162        C163   1.399       .  A
C163        H174   1.083       .  S
C163        C164   1.404       .  A
C164        C165   1.402       .  A
C165        H175   1.083       .  S
C165        C166   1.406       .  A
C166        C167   1.404       .  A
C167        H176   1.085       .  S
C168        H177   1.084       .  S
C168        C169   1.405       .  A
C169        C170   1.406       .  A
C170        H178   1.084       .  S
C179        H195   1.084       .  S
C179        C180   1.398       .  A
C179        C184   1.403       .  A
C180        H196   1.084       .  S
C180        C181   1.403       .  A
C181        C191   1.401       .  A
C181        C182   1.411       .  A
C182        C188   1.412       .  A
C182        C183   1.412       .  A
C183        C185   1.411       .  A
C183        C184   1.412       .  A
C184        C192   1.402       .  A
C185        C194   1.403       .  A
C185        C186   1.404       .  A
C186        H197   1.084       .  S
C186        C187   1.400       .  A
C187        H198   1.084       .  S
C187        C188   1.404       .  A
C188        C189   1.405       .  A
C189        H199   1.084       .  S
C189        C190   1.407       .  A
C190        C191   1.406       .  A
C191        H200   1.083       .  S
C192        H201   1.084       .  S
C192        C193   1.405       .  A
C193        C194   1.406       .  A
C194        H202   1.084       .  S
C203        H219   1.084       .  S
C203        C204   1.401       .  A
C203        C208   1.405       .  A
C204        H220   1.084       .  S
C204        C205   1.404       .  A
C205        C215   1.404       .  A
C205        C206   1.412       .  A
C206        C212   1.411       .  A
C206        C207   1.410       .  A
C207        C209   1.411       .  A
C207        C208   1.412       .  A
C208        C216   1.406       .  A
C209        C218   1.396       .  A
C209        C210   1.401       .  A
C210        H221   1.084       .  S
C210        C211   1.395       .  A
C211        H222   1.083       .  S
C211        C212   1.402       .  A
C212        C213   1.397       .  A
C213        H223   1.083       .  S
C213        C214   1.402       .  A
C214        C215   1.406       .  A
C215        H224   1.085       .  S
C216        H225   1.084       .  S
C216        C217   1.408       .  A
C217        C218   1.402       .  A
C218        H226   1.083       .  S
C227        H243   1.084       .  S
C227        C228   1.400       .  A
C227        C232   1.404       .  A
C228        H244   1.083       .  S
C228        C229   1.404       .  A
C229        C239   1.404       .  A
C229        C230   1.411       .  A
C230        C236   1.411       .  A
C230        C231   1.412       .  A
C231        C233   1.411       .  A
C231        C232   1.411       .  A
C232        C240   1.404       .  A
C233        C242   1.401       .  A
C233        C234   1.403       .  A
C234        H245   1.084       .  S
C234        C235   1.398       .  A
C235        H246   1.084       .  S
C235        C236   1.403       .  A
C236        C237   1.402       .  A
C237        H247   1.084       .  S
C237        C238   1.405       .  A
C238        C239   1.408       .  A
C239        H248   1.082       .  S
C240        H249   1.083       .  S
C240        C241   1.408       .  A
C241        C242   1.405       .  A
C242        H250   1.085       .  S
C251        H267   1.084       .  S
C251        C252   1.400       .  A
C251        C256   1.404       .  A
C252        H268   1.084       .  S
C252        C253   1.404       .  A
C253        C263   1.403       .  A
C253        C254   1.411       .  A
C254        C260   1.411       .  A
C254        C255   1.411       .  A
C255        C257   1.410       .  A
C255        C256   1.412       .  A
C256        C264   1.405       .  A
C257        C266   1.400       .  A
C257        C258   1.403       .  A
C258        H269   1.083       .  S
C258        C259   1.397       .  A
C259        H270   1.083       .  S
C259        C260   1.402       .  A
C260        C261   1.400       .  A
C261        H271   1.082       .  S
C261        C262   1.404       .  A
C262        C263   1.407       .  A
C263        H272   1.084       .  S
C264        H273   1.085       .  S
C264        C265   1.407       .  A
C265        C266   1.406       .  A
C266        H274   1.082       .  S
C275        H291   1.084       .  S
C275        C276   1.400       .  A
C275        C280   1.404       .  A
C276        H292   1.084       .  S
C276        C277   1.404       .  A
C277        C287   1.404       .  A
C277        C278   1.412       .  A
C278        C284   1.411       .  A
C278        C279   1.412       .  A
C279        C281   1.412       .  A
C279        C280   1.411       .  A
C280        C288   1.403       .  A
C281        C290   1.402       .  A
C281        C282   1.403       .  A
C282        H293   1.084       .  S
C282        C283   1.398       .  A
C283        H294   1.083       .  S
C283        C284   1.403       .  A
C284        C285   1.401       .  A
C285        H295   1.082       .  S
C285        C286   1.406       .  A
C286        C287   1.406       .  A
C287        H296   1.084       .  S
C288        H297   1.084       .  S
C288        C289   1.407       .  A
C289        C290   1.406       .  A
C290        H298   1.083       .  S
C299        N317   1.351       .  A
C299        C336   1.460       .  S
C299        C464   1.476       .  S
N300        N317   1.324       .  A
N300        N322   1.319       .  A
N300       Co337   2.083   1_565  S
C301        N326   1.339       .  A
C301        C339   1.461       .  S
C301        H346   1.081       .  S
H302        C343   1.081       .  S
C303        N327   1.338       .  A
C303        C307   1.462       .  S
C303        H332   1.081       .  S
Co304       N918   2.079   1_545  S
Co304       N312   2.086   1_545  S
Co304       N940   2.078       .  S
Co304       N320   2.086       .  S
Co304      Cl944   2.451       .  S
N305        C343   1.339       .  A
N305        N312   1.320       .  A
Co306       N309   2.077   1_545  S
Co306       N313   2.087       .  S
Co306      Cl646   2.450   1_556  S
C307        N345   1.349       .  A
C307        C515   1.475       .  S
N308        N315   1.319       .  A
N308        N338   1.326       .  A
N308       Co341   2.091   1_565  S
N309        N327   1.320       .  A
N309        N345   1.324       .  A
N310        C339   1.351       .  A
N310        N320   1.326       .  A
H311        C336   1.081       .  S
N312        N333   1.325       .  A
N313        N331   1.320       .  A
N313        N318   1.324       .  A
C314        N318   1.352       .  A
C314        C342   1.461       .  S
C314        C536   1.480       .  S
N315        C330   1.338       .  A
C316        N344   1.336       .  A
C316        C319   1.461       .  S
C316        H350   1.081       .  S
C319        N340   1.351       .  A
C319        C416   1.476       .  S
N320        N326   1.319       .  A
N321        C347   1.339       .  A
N321        N323   1.319       .  A
N322        C336   1.339       .  A
N322       Co900   2.079   1_465  S
N323        N351   1.326       .  A
N323       Co341   2.090       .  S
H324        C347   1.081       .  S
H325        C342   1.081       .  S
N327       Co937   2.083   1_565  S
N328        N340   1.325       .  A
N328        N344   1.320       .  A
N328       Co337   2.083       .  S
C329        N333   1.352       .  A
C329        C343   1.461       .  S
C329        C584   1.479       .  S
C330        C349   1.462       .  S
C330        H334   1.081       .  S
N331        C342   1.340       .  A
N331       Co937   2.081       .  S
C335        N351   1.352       .  A
C335        C347   1.459       .  S
C335        C443   1.476       .  S
Co337      Cl348   2.452   1_455  S
N338        C349   1.352       .  A
C339        C488   1.480       .  S
Co341       N923   2.083   1_445  S
Co341       N927   2.081   1_455  S
N344       Co900   2.078   1_455  S
Cl348      Co900   2.451       .  S
Cl348      Co604   2.450       .  S
C349        C563   1.480       .  S
C352        N370   1.351       .  A
C352        C389   1.463       .  S
C352        C587   1.480       .  S
N353        N370   1.324       .  A
N353        N375   1.319       .  A
N353       Co390   2.086       .  S
C354        N379   1.338       .  A
C354        C392   1.460       .  S
C354        H399   1.081       .  S
H355        C396   1.081       .  S
C356        N380   1.340       .  A
C356        C360   1.463       .  S
C356        H385   1.081       .  S
Co357       N375   2.082       .  S
Co357       N365   2.084       .  S
Co357       N397   2.084       .  S
Co357       N373   2.082       .  S
Co357      Cl401   2.448       .  S
N358        C396   1.341       .  A
N358        N365   1.319       .  A
N358       Co359   2.079       .  S
Co359       N362   2.073       .  S
Co359       N379   2.075       .  S
Co359       N366   2.083       .  S
Co359      Cl401   2.451       .  S
C360        N398   1.349       .  A
C360        C560   1.476       .  S
N361        N368   1.320       .  A
N361        N391   1.324       .  A
N361       Co394   2.078       .  S
N362        N380   1.319       .  A
N362        N398   1.323       .  A
N363        C392   1.350       .  A
N363        N373   1.323       .  A
H364        C389   1.081       .  S
N365        N386   1.323       .  A
N366        N384   1.319       .  A
N366        N371   1.324       .  A
C367        N371   1.350       .  A
C367        C395   1.462       .  S
C367        C440   1.478       .  S
N368        C383   1.338       .  A
N368       Co390   2.080       .  S
C369        N397   1.341       .  A
C369        C372   1.461       .  S
C369        H403   1.081       .  S
C372        N393   1.350       .  A
C372        C491   1.476       .  S
N373        N379   1.319       .  A
N374        C400   1.341       .  A
N374        N376   1.319       .  A
N374       Co390   2.081       .  S
N375        C389   1.340       .  A
N376        N404   1.324       .  A
N376       Co394   2.088       .  S
H377        C400   1.081       .  S
H378        C395   1.081       .  S
N380       Co394   2.084       .  S
N381        N393   1.324       .  A
N381        N397   1.320       .  A
N381       Co390   2.083       .  S
C382        N386   1.350       .  A
C382        C396   1.461       .  S
C382        C467   1.476       .  S
C383        C402   1.460       .  S
C383        H387   1.081       .  S
N384        C395   1.341       .  A
N384       Co394   2.083       .  S
C388        N404   1.352       .  A
C388        C400   1.461       .  S
C388        C539   1.480       .  S
Co390      Cl401   2.450       .  S
N391        C402   1.348       .  A
C392        C419   1.474       .  S
Co394      Cl401   2.447       .  S
C402        C512   1.471       .  S
C405        H421   1.084       .  S
C405        C406   1.400       .  A
C405        C410   1.404       .  A
C406        H422   1.083       .  S
C406        C407   1.404       .  A
C407        C417   1.404       .  A
C407        C408   1.412       .  A
C408        C414   1.410       .  A
C408        C409   1.409       .  A
C409        C411   1.412       .  A
C409        C410   1.411       .  A
C410        C418   1.402       .  A
C411        C420   1.398       .  A
C411        C412   1.402       .  A
C412        H423   1.084       .  S
C412        C413   1.396       .  A
C413        H424   1.083       .  S
C413        C414   1.402       .  A
C414        C415   1.397       .  A
C415        H425   1.082       .  S
C415        C416   1.404       .  A
C416        C417   1.407       .  A
C417        H426   1.084       .  S
C418        H427   1.085       .  S
C418        C419   1.406       .  A
C419        C420   1.404       .  A
C420        H428   1.083       .  S
C429        H445   1.084       .  S
C429        C430   1.399       .  A
C429        C434   1.403       .  A
C430        H446   1.084       .  S
C430        C431   1.404       .  A
C431        C441   1.403       .  A
C431        C432   1.411       .  A
C432        C438   1.412       .  A
C432        C433   1.412       .  A
C433        C435   1.411       .  A
C433        C434   1.412       .  A
C434        C442   1.404       .  A
C435        C444   1.402       .  A
C435        C436   1.403       .  A
C436        H447   1.084       .  S
C436        C437   1.398       .  A
C437        H448   1.083       .  S
C437        C438   1.403       .  A
C438        C439   1.403       .  A
C439        H449   1.083       .  S
C439        C440   1.405       .  A
C440        C441   1.406       .  A
C441        H450   1.085       .  S
C442        H451   1.085       .  S
C442        C443   1.405       .  A
C443        C444   1.406       .  A
C444        H452   1.084       .  S
C453        H469   1.083       .  S
C453        C454   1.397       .  A
C453        C458   1.403       .  A
C454        H470   1.084       .  S
C454        C455   1.403       .  A
C455        C465   1.401       .  A
C455        C456   1.412       .  A
C456        C462   1.411       .  A
C456        C457   1.410       .  A
C457        C459   1.412       .  A
C457        C458   1.410       .  A
C458        C466   1.399       .  A
C459        C468   1.404       .  A
C459        C460   1.404       .  A
C460        H471   1.084       .  S
C460        C461   1.399       .  A
C461        H472   1.083       .  S
C461        C462   1.404       .  A
C462        C463   1.402       .  A
C463        H473   1.083       .  S
C463        C464   1.406       .  A
C464        C465   1.404       .  A
C465        H474   1.085       .  S
C466        H475   1.084       .  S
C466        C467   1.405       .  A
C467        C468   1.406       .  A
C468        H476   1.084       .  S
C477        H493   1.084       .  S
C477        C478   1.398       .  A
C477        C482   1.403       .  A
C478        H494   1.084       .  S
C478        C479   1.403       .  A
C479        C489   1.401       .  A
C479        C480   1.411       .  A
C480        C486   1.412       .  A
C480        C481   1.412       .  A
C481        C483   1.411       .  A
C481        C482   1.412       .  A
C482        C490   1.402       .  A
C483        C492   1.403       .  A
C483        C484   1.404       .  A
C484        H495   1.084       .  S
C484        C485   1.400       .  A
C485        H496   1.084       .  S
C485        C486   1.404       .  A
C486        C487   1.405       .  A
C487        H497   1.084       .  S
C487        C488   1.407       .  A
C488        C489   1.406       .  A
C489        H498   1.083       .  S
C490        H499   1.084       .  S
C490        C491   1.405       .  A
C491        C492   1.406       .  A
C492        H500   1.084       .  S
C501        H517   1.084       .  S
C501        C502   1.401       .  A
C501        C506   1.405       .  A
C502        H518   1.084       .  S
C502        C503   1.404       .  A
C503        C513   1.404       .  A
C503        C504   1.412       .  A
C504        C510   1.411       .  A
C504        C505   1.410       .  A
C505        C507   1.411       .  A
C505        C506   1.412       .  A
C506        C514   1.406       .  A
C507        C516   1.396       .  A
C507        C508   1.401       .  A
C508        H519   1.084       .  S
C508        C509   1.395       .  A
C509        H520   1.083       .  S
C509        C510   1.402       .  A
C510        C511   1.397       .  A
C511        H521   1.083       .  S
C511        C512   1.402       .  A
C512        C513   1.406       .  A
C513        H522   1.085       .  S
C514        H523   1.084       .  S
C514        C515   1.408       .  A
C515        C516   1.402       .  A
C516        H524   1.083       .  S
C525        H541   1.084       .  S
C525        C526   1.400       .  A
C525        C530   1.404       .  A
C526        H542   1.083       .  S
C526        C527   1.404       .  A
C527        C537   1.404       .  A
C527        C528   1.411       .  A
C528        C534   1.411       .  A
C528        C529   1.412       .  A
C529        C531   1.411       .  A
C529        C530   1.411       .  A
C530        C538   1.404       .  A
C531        C540   1.401       .  A
C531        C532   1.403       .  A
C532        H543   1.084       .  S
C532        C533   1.398       .  A
C533        H544   1.084       .  S
C533        C534   1.403       .  A
C534        C535   1.402       .  A
C535        H545   1.084       .  S
C535        C536   1.405       .  A
C536        C537   1.408       .  A
C537        H546   1.082       .  S
C538        H547   1.083       .  S
C538        C539   1.408       .  A
C539        C540   1.405       .  A
C540        H548   1.085       .  S
C549        H565   1.084       .  S
C549        C550   1.400       .  A
C549        C554   1.404       .  A
C550        H566   1.084       .  S
C550        C551   1.404       .  A
C551        C561   1.403       .  A
C551        C552   1.411       .  A
C552        C558   1.411       .  A
C552        C553   1.411       .  A
C553        C555   1.410       .  A
C553        C554   1.412       .  A
C554        C562   1.405       .  A
C555        C564   1.400       .  A
C555        C556   1.403       .  A
C556        H567   1.083       .  S
C556        C557   1.397       .  A
C557        H568   1.083       .  S
C557        C558   1.402       .  A
C558        C559   1.400       .  A
C559        H569   1.082       .  S
C559        C560   1.404       .  A
C560        C561   1.407       .  A
C561        H570   1.084       .  S
C562        H571   1.085       .  S
C562        C563   1.407       .  A
C563        C564   1.406       .  A
C564        H572   1.082       .  S
C573        H589   1.084       .  S
C573        C574   1.400       .  A
C573        C578   1.404       .  A
C574        H590   1.084       .  S
C574        C575   1.404       .  A
C575        C585   1.404       .  A
C575        C576   1.412       .  A
C576        C582   1.411       .  A
C576        C577   1.412       .  A
C577        C579   1.412       .  A
C577        C578   1.411       .  A
C578        C586   1.403       .  A
C579        C588   1.402       .  A
C579        C580   1.403       .  A
C580        H591   1.084       .  S
C580        C581   1.398       .  A
C581        H592   1.083       .  S
C581        C582   1.403       .  A
C582        C583   1.401       .  A
C583        H593   1.082       .  S
C583        C584   1.406       .  A
C584        C585   1.406       .  A
C585        H594   1.084       .  S
C586        H595   1.084       .  S
C586        C587   1.407       .  A
C587        C588   1.406       .  A
C588        H596   1.083       .  S
C597        N615   1.351       .  A
C597        C634   1.460       .  S
C597        C762   1.476       .  S
N598        N615   1.324       .  A
N598        N620   1.319       .  A
N598       Co635   2.083   1_565  S
C599        N624   1.339       .  A
C599        C637   1.461       .  S
C599        H644   1.081       .  S
H600        C641   1.081       .  S
C601        N625   1.338       .  A
C601        C605   1.462       .  S
C601        H630   1.081       .  S
Co602       N610   2.086   1_545  S
Co602       N618   2.086       .  S
N603        C641   1.339       .  A
N603        N610   1.320       .  A
N603       Co902   2.084   1_564  S
Co604       N901   2.084   1_545  S
Co604       N607   2.077   1_545  S
Co604       N922   2.080       .  S
Co604       N611   2.087       .  S
C605        N643   1.349       .  A
C605        C813   1.475       .  S
N606        N613   1.319       .  A
N606        N636   1.326       .  A
N606       Co639   2.091   1_565  S
N607        N625   1.320       .  A
N607        N643   1.324       .  A
N608        C637   1.351       .  A
N608        N618   1.326       .  A
H609        C634   1.081       .  S
N610        N631   1.325       .  A
N611        N629   1.320       .  A
N611        N616   1.324       .  A
C612        N616   1.352       .  A
C612        C640   1.461       .  S
C612        C834   1.480       .  S
N613        C628   1.338       .  A
N613       Co933   2.080   1_565  S
C614        N642   1.336       .  A
C614        C617   1.461       .  S
C614        H648   1.081       .  S
C617        N638   1.351       .  A
C617        C714   1.476       .  S
N618        N624   1.319       .  A
N619        C645   1.339       .  A
N619        N621   1.319       .  A
N619       Co933   2.078       .  S
N620        C634   1.339       .  A
N621        N649   1.326       .  A
N621       Co639   2.090       .  S
H622        C645   1.081       .  S
H623        C640   1.081       .  S
N624       Co902   2.080   1_554  S
N626        N638   1.325       .  A
N626        N642   1.320       .  A
N626       Co635   2.083       .  S
C627        N631   1.352       .  A
C627        C641   1.461       .  S
C627        C882   1.479       .  S
C628        C647   1.462       .  S
C628        H632   1.081       .  S
N629        C640   1.340       .  A
C633        N649   1.352       .  A
C633        C645   1.459       .  S
C633        C741   1.476       .  S
Co635       N911   2.080   1_544  S
Co635       N917   2.078   1_554  S
Co635      Cl646   2.452       .  S
N636        C647   1.352       .  A
C637        C786   1.480       .  S
Co639      Cl944   2.449       .  S
Cl646      Co937   2.449   1_554  S
C647        C861   1.480       .  S
C650        N668   1.351       .  A
C650        C687   1.463       .  S
C650        C885   1.480       .  S
N651        N668   1.324       .  A
N651        N673   1.319       .  A
N651       Co688   2.086       .  S
C652        N677   1.338       .  A
C652        C690   1.460       .  S
C652        H697   1.081       .  S
H653        C694   1.081       .  S
C654        N678   1.340       .  A
C654        C658   1.463       .  S
C654        H683   1.081       .  S
Co655       N673   2.082       .  S
Co655       N663   2.084       .  S
Co655       N695   2.084       .  S
Co655       N671   2.082       .  S
Co655      Cl699   2.448       .  S
N656        C694   1.341       .  A
N656        N663   1.319       .  A
N656       Co657   2.079       .  S
Co657       N660   2.073       .  S
Co657       N677   2.075       .  S
Co657       N664   2.083       .  S
Co657      Cl699   2.451       .  S
C658        N696   1.349       .  A
C658        C858   1.476       .  S
N659        N666   1.320       .  A
N659        N689   1.324       .  A
N659       Co692   2.078       .  S
N660        N678   1.319       .  A
N660        N696   1.323       .  A
N661        C690   1.350       .  A
N661        N671   1.323       .  A
H662        C687   1.081       .  S
N663        N684   1.323       .  A
N664        N682   1.319       .  A
N664        N669   1.324       .  A
C665        N669   1.350       .  A
C665        C693   1.462       .  S
C665        C738   1.478       .  S
N666        C681   1.338       .  A
N666       Co688   2.080       .  S
C667        N695   1.341       .  A
C667        C670   1.461       .  S
C667        H701   1.081       .  S
C670        N691   1.350       .  A
C670        C789   1.476       .  S
N671        N677   1.319       .  A
N672        C698   1.341       .  A
N672        N674   1.319       .  A
N672       Co688   2.081       .  S
N673        C687   1.340       .  A
N674        N702   1.324       .  A
N674       Co692   2.088       .  S
H675        C698   1.081       .  S
H676        C693   1.081       .  S
N678       Co692   2.084       .  S
N679        N691   1.324       .  A
N679        N695   1.320       .  A
N679       Co688   2.083       .  S
C680        N684   1.350       .  A
C680        C694   1.461       .  S
C680        C765   1.476       .  S
C681        C700   1.460       .  S
C681        H685   1.081       .  S
N682        C693   1.341       .  A
N682       Co692   2.083       .  S
C686        N702   1.352       .  A
C686        C698   1.461       .  S
C686        C837   1.480       .  S
Co688      Cl699   2.450       .  S
N689        C700   1.348       .  A
C690        C717   1.474       .  S
Co692      Cl699   2.447       .  S
C700        C810   1.471       .  S
C703        H719   1.084       .  S
C703        C704   1.400       .  A
C703        C708   1.404       .  A
C704        H720   1.083       .  S
C704        C705   1.404       .  A
C705        C715   1.404       .  A
C705        C706   1.412       .  A
C706        C712   1.410       .  A
C706        C707   1.409       .  A
C707        C709   1.412       .  A
C707        C708   1.411       .  A
C708        C716   1.402       .  A
C709        C718   1.398       .  A
C709        C710   1.402       .  A
C710        H721   1.084       .  S
C710        C711   1.396       .  A
C711        H722   1.083       .  S
C711        C712   1.402       .  A
C712        C713   1.397       .  A
C713        H723   1.082       .  S
C713        C714   1.404       .  A
C714        C715   1.407       .  A
C715        H724   1.084       .  S
C716        H725   1.085       .  S
C716        C717   1.406       .  A
C717        C718   1.404       .  A
C718        H726   1.083       .  S
C727        H743   1.084       .  S
C727        C728   1.399       .  A
C727        C732   1.403       .  A
C728        H744   1.084       .  S
C728        C729   1.404       .  A
C729        C739   1.403       .  A
C729        C730   1.411       .  A
C730        C736   1.412       .  A
C730        C731   1.412       .  A
C731        C733   1.411       .  A
C731        C732   1.412       .  A
C732        C740   1.404       .  A
C733        C742   1.402       .  A
C733        C734   1.403       .  A
C734        H745   1.084       .  S
C734        C735   1.398       .  A
C735        H746   1.083       .  S
C735        C736   1.403       .  A
C736        C737   1.403       .  A
C737        H747   1.083       .  S
C737        C738   1.405       .  A
C738        C739   1.406       .  A
C739        H748   1.085       .  S
C740        H749   1.085       .  S
C740        C741   1.405       .  A
C741        C742   1.406       .  A
C742        H750   1.084       .  S
C751        H767   1.083       .  S
C751        C752   1.397       .  A
C751        C756   1.403       .  A
C752        H768   1.084       .  S
C752        C753   1.403       .  A
C753        C763   1.401       .  A
C753        C754   1.412       .  A
C754        C760   1.411       .  A
C754        C755   1.410       .  A
C755        C757   1.412       .  A
C755        C756   1.410       .  A
C756        C764   1.399       .  A
C757        C766   1.404       .  A
C757        C758   1.404       .  A
C758        H769   1.084       .  S
C758        C759   1.399       .  A
C759        H770   1.083       .  S
C759        C760   1.404       .  A
C760        C761   1.402       .  A
C761        H771   1.083       .  S
C761        C762   1.406       .  A
C762        C763   1.404       .  A
C763        H772   1.085       .  S
C764        H773   1.084       .  S
C764        C765   1.405       .  A
C765        C766   1.406       .  A
C766        H774   1.084       .  S
C775        H791   1.084       .  S
C775        C776   1.398       .  A
C775        C780   1.403       .  A
C776        H792   1.084       .  S
C776        C777   1.403       .  A
C777        C787   1.401       .  A
C777        C778   1.411       .  A
C778        C784   1.412       .  A
C778        C779   1.412       .  A
C779        C781   1.411       .  A
C779        C780   1.412       .  A
C780        C788   1.402       .  A
C781        C790   1.403       .  A
C781        C782   1.404       .  A
C782        H793   1.084       .  S
C782        C783   1.400       .  A
C783        H794   1.084       .  S
C783        C784   1.404       .  A
C784        C785   1.405       .  A
C785        H795   1.084       .  S
C785        C786   1.407       .  A
C786        C787   1.406       .  A
C787        H796   1.083       .  S
C788        H797   1.084       .  S
C788        C789   1.405       .  A
C789        C790   1.406       .  A
C790        H798   1.084       .  S
C799        H815   1.084       .  S
C799        C800   1.401       .  A
C799        C804   1.405       .  A
C800        H816   1.084       .  S
C800        C801   1.404       .  A
C801        C811   1.404       .  A
C801        C802   1.412       .  A
C802        C808   1.411       .  A
C802        C803   1.410       .  A
C803        C805   1.411       .  A
C803        C804   1.412       .  A
C804        C812   1.406       .  A
C805        C814   1.396       .  A
C805        C806   1.401       .  A
C806        H817   1.084       .  S
C806        C807   1.395       .  A
C807        H818   1.083       .  S
C807        C808   1.402       .  A
C808        C809   1.397       .  A
C809        H819   1.083       .  S
C809        C810   1.402       .  A
C810        C811   1.406       .  A
C811        H820   1.085       .  S
C812        H821   1.084       .  S
C812        C813   1.408       .  A
C813        C814   1.402       .  A
C814        H822   1.083       .  S
C823        H839   1.084       .  S
C823        C824   1.400       .  A
C823        C828   1.404       .  A
C824        H840   1.083       .  S
C824        C825   1.404       .  A
C825        C835   1.404       .  A
C825        C826   1.411       .  A
C826        C832   1.411       .  A
C826        C827   1.412       .  A
C827        C829   1.411       .  A
C827        C828   1.411       .  A
C828        C836   1.404       .  A
C829        C838   1.401       .  A
C829        C830   1.403       .  A
C830        H841   1.084       .  S
C830        C831   1.398       .  A
C831        H842   1.084       .  S
C831        C832   1.403       .  A
C832        C833   1.402       .  A
C833        H843   1.084       .  S
C833        C834   1.405       .  A
C834        C835   1.408       .  A
C835        H844   1.082       .  S
C836        H845   1.083       .  S
C836        C837   1.408       .  A
C837        C838   1.405       .  A
C838        H846   1.085       .  S
C847        H863   1.084       .  S
C847        C848   1.400       .  A
C847        C852   1.404       .  A
C848        H864   1.084       .  S
C848        C849   1.404       .  A
C849        C859   1.403       .  A
C849        C850   1.411       .  A
C850        C856   1.411       .  A
C850        C851   1.411       .  A
C851        C853   1.410       .  A
C851        C852   1.412       .  A
C852        C860   1.405       .  A
C853        C862   1.400       .  A
C853        C854   1.403       .  A
C854        H865   1.083       .  S
C854        C855   1.397       .  A
C855        H866   1.083       .  S
C855        C856   1.402       .  A
C856        C857   1.400       .  A
C857        H867   1.082       .  S
C857        C858   1.404       .  A
C858        C859   1.407       .  A
C859        H868   1.084       .  S
C860        H869   1.085       .  S
C860        C861   1.407       .  A
C861        C862   1.406       .  A
C862        H870   1.082       .  S
C871        H887   1.084       .  S
C871        C872   1.400       .  A
C871        C876   1.404       .  A
C872        H888   1.084       .  S
C872        C873   1.404       .  A
C873        C883   1.404       .  A
C873        C874   1.412       .  A
C874        C880   1.411       .  A
C874        C875   1.412       .  A
C875        C877   1.412       .  A
C875        C876   1.411       .  A
C876        C884   1.403       .  A
C877        C886   1.402       .  A
C877        C878   1.403       .  A
C878        H889   1.084       .  S
C878        C879   1.398       .  A
C879        H890   1.083       .  S
C879        C880   1.403       .  A
C880        C881   1.401       .  A
C881        H891   1.082       .  S
C881        C882   1.406       .  A
C882        C883   1.406       .  A
C883        H892   1.084       .  S
C884        H893   1.084       .  S
C884        C885   1.407       .  A
C885        C886   1.406       .  A
C886        H894   1.083       .  S
C895        N913   1.351       .  A
C895        C932   1.460       .  S
C895       C1060   1.476       .  S
N896        N913   1.324       .  A
N896        N918   1.319       .  A
N896       Co933   2.083   1_565  S
C897        N922   1.339       .  A
C897        C935   1.461       .  S
C897        H942   1.081       .  S
H898        C939   1.081       .  S
C899        N923   1.338       .  A
C899        C903   1.462       .  S
C899        H928   1.081       .  S
Co900       N908   2.086   1_545  S
Co900       N916   2.086       .  S
N901        C939   1.339       .  A
N901        N908   1.320       .  A
Co902       N905   2.077   1_545  S
Co902       N909   2.087       .  S
C903        N941   1.349       .  A
C903       C1111   1.475       .  S
N904        N911   1.319       .  A
N904        N934   1.326       .  A
N904       Co937   2.091   1_565  S
N905        N923   1.320       .  A
N905        N941   1.324       .  A
N906        C935   1.351       .  A
N906        N916   1.326       .  A
H907        C932   1.081       .  S
N908        N929   1.325       .  A
N909        N927   1.320       .  A
N909        N914   1.324       .  A
C910        N914   1.352       .  A
C910        C938   1.461       .  S
C910       C1132   1.480       .  S
N911        C926   1.338       .  A
C912        N940   1.336       .  A
C912        C915   1.461       .  S
C912        H946   1.081       .  S
C915        N936   1.351       .  A
C915       C1012   1.476       .  S
N916        N922   1.319       .  A
N917        C943   1.339       .  A
N917        N919   1.319       .  A
N918        C932   1.339       .  A
N919        N947   1.326       .  A
N919       Co937   2.090       .  S
H920        C943   1.081       .  S
H921        C938   1.081       .  S
N924        N936   1.325       .  A
N924        N940   1.320       .  A
N924       Co933   2.083       .  S
C925        N929   1.352       .  A
C925        C939   1.461       .  S
C925       C1180   1.479       .  S
C926        C945   1.462       .  S
C926        H930   1.081       .  S
N927        C938   1.340       .  A
C931        N947   1.352       .  A
C931        C943   1.459       .  S
C931       C1039   1.476       .  S
Co933      Cl944   2.452       .  S
N934        C945   1.352       .  A
C935       C1084   1.480       .  S
C945       C1159   1.480       .  S
C948        N966   1.351       .  A
C948        C985   1.463       .  S
C948       C1183   1.480       .  S
N949        N966   1.324       .  A
N949        N971   1.319       .  A
N949       Co986   2.086       .  S
C950        N975   1.338       .  A
C950        C988   1.460       .  S
C950        H995   1.081       .  S
H951        C992   1.081       .  S
C952        N976   1.340       .  A
C952        C956   1.463       .  S
C952        H981   1.081       .  S
Co953       N971   2.082       .  S
Co953       N961   2.084       .  S
Co953       N993   2.084       .  S
Co953       N969   2.082       .  S
Co953      Cl997   2.448       .  S
N954        C992   1.341       .  A
N954        N961   1.319       .  A
N954       Co955   2.079       .  S
Co955       N958   2.073       .  S
Co955       N975   2.075       .  S
Co955       N962   2.083       .  S
Co955      Cl997   2.451       .  S
C956        N994   1.349       .  A
C956       C1156   1.476       .  S
N957        N964   1.320       .  A
N957        N987   1.324       .  A
N957       Co990   2.078       .  S
N958        N976   1.319       .  A
N958        N994   1.323       .  A
N959        C988   1.350       .  A
N959        N969   1.323       .  A
H960        C985   1.081       .  S
N961        N982   1.323       .  A
N962        N980   1.319       .  A
N962        N967   1.324       .  A
C963        N967   1.350       .  A
C963        C991   1.462       .  S
C963       C1036   1.478       .  S
N964        C979   1.338       .  A
N964       Co986   2.080       .  S
C965        N993   1.341       .  A
C965        C968   1.461       .  S
C965        H999   1.081       .  S
C968        N989   1.350       .  A
C968       C1087   1.476       .  S
N969        N975   1.319       .  A
N970        C996   1.341       .  A
N970        N972   1.319       .  A
N970       Co986   2.081       .  S
N971        C985   1.340       .  A
N972       N1000   1.324       .  A
N972       Co990   2.088       .  S
H973        C996   1.081       .  S
H974        C991   1.081       .  S
N976       Co990   2.084       .  S
N977        N989   1.324       .  A
N977        N993   1.320       .  A
N977       Co986   2.083       .  S
C978        N982   1.350       .  A
C978        C992   1.461       .  S
C978       C1063   1.476       .  S
C979        C998   1.460       .  S
C979        H983   1.081       .  S
N980        C991   1.341       .  A
N980       Co990   2.083       .  S
C984       N1000   1.352       .  A
C984        C996   1.461       .  S
C984       C1135   1.480       .  S
Co986      Cl997   2.450       .  S
N987        C998   1.348       .  A
C988       C1015   1.474       .  S
Co990      Cl997   2.447       .  S
C998       C1108   1.471       .  S
C1001      H1017   1.084       .  S
C1001      C1002   1.400       .  A
C1001      C1006   1.404       .  A
C1002      H1018   1.083       .  S
C1002      C1003   1.404       .  A
C1003      C1013   1.404       .  A
C1003      C1004   1.412       .  A
C1004      C1010   1.410       .  A
C1004      C1005   1.409       .  A
C1005      C1007   1.412       .  A
C1005      C1006   1.411       .  A
C1006      C1014   1.402       .  A
C1007      C1016   1.398       .  A
C1007      C1008   1.402       .  A
C1008      H1019   1.084       .  S
C1008      C1009   1.396       .  A
C1009      H1020   1.083       .  S
C1009      C1010   1.402       .  A
C1010      C1011   1.397       .  A
C1011      H1021   1.082       .  S
C1011      C1012   1.404       .  A
C1012      C1013   1.407       .  A
C1013      H1022   1.084       .  S
C1014      H1023   1.085       .  S
C1014      C1015   1.406       .  A
C1015      C1016   1.404       .  A
C1016      H1024   1.083       .  S
C1025      H1041   1.084       .  S
C1025      C1026   1.399       .  A
C1025      C1030   1.403       .  A
C1026      H1042   1.084       .  S
C1026      C1027   1.404       .  A
C1027      C1037   1.403       .  A
C1027      C1028   1.411       .  A
C1028      C1034   1.412       .  A
C1028      C1029   1.412       .  A
C1029      C1031   1.411       .  A
C1029      C1030   1.412       .  A
C1030      C1038   1.404       .  A
C1031      C1040   1.402       .  A
C1031      C1032   1.403       .  A
C1032      H1043   1.084       .  S
C1032      C1033   1.398       .  A
C1033      H1044   1.083       .  S
C1033      C1034   1.403       .  A
C1034      C1035   1.403       .  A
C1035      H1045   1.083       .  S
C1035      C1036   1.405       .  A
C1036      C1037   1.406       .  A
C1037      H1046   1.085       .  S
C1038      H1047   1.085       .  S
C1038      C1039   1.405       .  A
C1039      C1040   1.406       .  A
C1040      H1048   1.084       .  S
C1049      H1065   1.083       .  S
C1049      C1050   1.397       .  A
C1049      C1054   1.403       .  A
C1050      H1066   1.084       .  S
C1050      C1051   1.403       .  A
C1051      C1061   1.401       .  A
C1051      C1052   1.412       .  A
C1052      C1058   1.411       .  A
C1052      C1053   1.410       .  A
C1053      C1055   1.412       .  A
C1053      C1054   1.410       .  A
C1054      C1062   1.399       .  A
C1055      C1064   1.404       .  A
C1055      C1056   1.404       .  A
C1056      H1067   1.084       .  S
C1056      C1057   1.399       .  A
C1057      H1068   1.083       .  S
C1057      C1058   1.404       .  A
C1058      C1059   1.402       .  A
C1059      H1069   1.083       .  S
C1059      C1060   1.406       .  A
C1060      C1061   1.404       .  A
C1061      H1070   1.085       .  S
C1062      H1071   1.084       .  S
C1062      C1063   1.405       .  A
C1063      C1064   1.406       .  A
C1064      H1072   1.084       .  S
C1073      H1089   1.084       .  S
C1073      C1074   1.398       .  A
C1073      C1078   1.403       .  A
C1074      H1090   1.084       .  S
C1074      C1075   1.403       .  A
C1075      C1085   1.401       .  A
C1075      C1076   1.411       .  A
C1076      C1082   1.412       .  A
C1076      C1077   1.412       .  A
C1077      C1079   1.411       .  A
C1077      C1078   1.412       .  A
C1078      C1086   1.402       .  A
C1079      C1088   1.403       .  A
C1079      C1080   1.404       .  A
C1080      H1091   1.084       .  S
C1080      C1081   1.400       .  A
C1081      H1092   1.084       .  S
C1081      C1082   1.404       .  A
C1082      C1083   1.405       .  A
C1083      H1093   1.084       .  S
C1083      C1084   1.407       .  A
C1084      C1085   1.406       .  A
C1085      H1094   1.083       .  S
C1086      H1095   1.084       .  S
C1086      C1087   1.405       .  A
C1087      C1088   1.406       .  A
C1088      H1096   1.084       .  S
C1097      H1113   1.084       .  S
C1097      C1098   1.401       .  A
C1097      C1102   1.405       .  A
C1098      H1114   1.084       .  S
C1098      C1099   1.404       .  A
C1099      C1109   1.404       .  A
C1099      C1100   1.412       .  A
C1100      C1106   1.411       .  A
C1100      C1101   1.410       .  A
C1101      C1103   1.411       .  A
C1101      C1102   1.412       .  A
C1102      C1110   1.406       .  A
C1103      C1112   1.396       .  A
C1103      C1104   1.401       .  A
C1104      H1115   1.084       .  S
C1104      C1105   1.395       .  A
C1105      H1116   1.083       .  S
C1105      C1106   1.402       .  A
C1106      C1107   1.397       .  A
C1107      H1117   1.083       .  S
C1107      C1108   1.402       .  A
C1108      C1109   1.406       .  A
C1109      H1118   1.085       .  S
C1110      H1119   1.084       .  S
C1110      C1111   1.408       .  A
C1111      C1112   1.402       .  A
C1112      H1120   1.083       .  S
C1121      H1137   1.084       .  S
C1121      C1122   1.400       .  A
C1121      C1126   1.404       .  A
C1122      H1138   1.083       .  S
C1122      C1123   1.404       .  A
C1123      C1133   1.404       .  A
C1123      C1124   1.411       .  A
C1124      C1130   1.411       .  A
C1124      C1125   1.412       .  A
C1125      C1127   1.411       .  A
C1125      C1126   1.411       .  A
C1126      C1134   1.404       .  A
C1127      C1136   1.401       .  A
C1127      C1128   1.403       .  A
C1128      H1139   1.084       .  S
C1128      C1129   1.398       .  A
C1129      H1140   1.084       .  S
C1129      C1130   1.403       .  A
C1130      C1131   1.402       .  A
C1131      H1141   1.084       .  S
C1131      C1132   1.405       .  A
C1132      C1133   1.408       .  A
C1133      H1142   1.082       .  S
C1134      H1143   1.083       .  S
C1134      C1135   1.408       .  A
C1135      C1136   1.405       .  A
C1136      H1144   1.085       .  S
C1145      H1161   1.084       .  S
C1145      C1146   1.400       .  A
C1145      C1150   1.404       .  A
C1146      H1162   1.084       .  S
C1146      C1147   1.404       .  A
C1147      C1157   1.403       .  A
C1147      C1148   1.411       .  A
C1148      C1154   1.411       .  A
C1148      C1149   1.411       .  A
C1149      C1151   1.410       .  A
C1149      C1150   1.412       .  A
C1150      C1158   1.405       .  A
C1151      C1160   1.400       .  A
C1151      C1152   1.403       .  A
C1152      H1163   1.083       .  S
C1152      C1153   1.397       .  A
C1153      H1164   1.083       .  S
C1153      C1154   1.402       .  A
C1154      C1155   1.400       .  A
C1155      H1165   1.082       .  S
C1155      C1156   1.404       .  A
C1156      C1157   1.407       .  A
C1157      H1166   1.084       .  S
C1158      H1167   1.085       .  S
C1158      C1159   1.407       .  A
C1159      C1160   1.406       .  A
C1160      H1168   1.082       .  S
C1169      H1185   1.084       .  S
C1169      C1170   1.400       .  A
C1169      C1174   1.404       .  A
C1170      H1186   1.084       .  S
C1170      C1171   1.404       .  A
C1171      C1181   1.404       .  A
C1171      C1172   1.412       .  A
C1172      C1178   1.411       .  A
C1172      C1173   1.412       .  A
C1173      C1175   1.412       .  A
C1173      C1174   1.411       .  A
C1174      C1182   1.403       .  A
C1175      C1184   1.402       .  A
C1175      C1176   1.403       .  A
C1176      H1187   1.084       .  S
C1176      C1177   1.398       .  A
C1177      H1188   1.083       .  S
C1177      C1178   1.403       .  A
C1178      C1179   1.401       .  A
C1179      H1189   1.082       .  S
C1179      C1180   1.406       .  A
C1180      C1181   1.406       .  A
C1181      H1190   1.084       .  S
C1182      H1191   1.084       .  S
C1182      C1183   1.407       .  A
C1183      C1184   1.406       .  A
C1184      H1192   1.083       .  S
