geometry optimzed in LAMMPS
_audit_creation_date              2020-11-30 
_audit_creation_method            'lammps2cif' 
_symmetry_space_group_name_H-M    'P1' 
_symmetry_Int_Tables_number       1 
_symmetry_cell_setting            triclinic 
loop_ 
_symmetry_equiv_pos_as_xyz 
  x,y,z 
_cell_length_a                    31.06513326 
_cell_length_b                    40.70342156217409 
_cell_length_c                    43.45234997474837 
_cell_angle_alpha                 89.81252378513518 
_cell_angle_beta                  90.11822395939367 
_cell_angle_gamma                 89.95475295798542 
loop_ 
_atom_site_label 
_atom_site_type_symbol 
_atom_site_fract_x 
_atom_site_fract_y 
_atom_site_fract_z 
_atom_site_charge 
N1          N  0.06794666  0.45152692  0.24696384    -0.27200
N2          N  0.03656171  0.43143242  0.23844966    -0.35000
C3          C  0.00145016  0.44915638  0.23115516     0.01200
C4          C  0.01073714  0.48197064  0.23529130     0.07200
C5          C  0.05318260  0.48265183  0.24526780    -0.05900
H6          H  0.97108989  0.43874212  0.22383270     0.07800
H7          H  0.07179296  0.50415352  0.25130578     0.09000
Cu8        Cu  0.03992195  0.38058036  0.23672595     0.44200
Cu9        Cu  0.12948095  0.43624351  0.26136032     0.42000
Cu10       Cu  0.13954486  0.34769868  0.25671683     0.43900
N11         N  0.05256083  0.33074068  0.23307125    -0.34600
N12         N  0.09085348  0.31866334  0.23976667    -0.28800
C13         C  0.09159413  0.28642187  0.23322178    -0.04900
C14         C  0.05142575  0.27760143  0.22224133     0.07300
C15         C  0.02743118  0.30636748  0.22243731     0.01100
H16         H  0.11934793  0.27063297  0.23616331     0.08700
H17         H  0.99472685  0.30960387  0.21436667     0.07800
N18         N  0.18788847  0.37830526  0.27161735    -0.36000
N19         N  0.18585617  0.41068801  0.27346843    -0.28200
C20         C  0.22510385  0.42199873  0.28196260    -0.03400
C21         C  0.25272057  0.39525053  0.28511592     0.05200
C22         C  0.22770703  0.36818539  0.27860007     0.03300
H23         H  0.23347259  0.44768761  0.28408780     0.08400
H24         H  0.23808357  0.34281682  0.27791040     0.07200
C25         C  0.93343213  0.12124851  0.15911084     0.80300
N26         N  0.95481450  0.14264292  0.17756285    -0.78000
C27         C  0.99403998  0.15469503  0.16983859     0.82800
N28         N  0.01311790  0.14375346  0.14373622    -0.77900
C29         C  0.99233889  0.12264975  0.12465575     0.82900
N30         N  0.95199914  0.11207735  0.13207582    -0.79600
N31         N  0.93004303  0.44839336  0.47006509    -0.27200
N32         N  0.96109889  0.43002564  0.48205018    -0.35000
C33         C  0.99368458  0.44971411  0.49084632     0.01200
C34         C  0.98273747  0.48190154  0.48399705     0.07200
C35         C  0.94215923  0.48011235  0.47094831    -0.05900
H36         H  0.02353895  0.44111211  0.50091432     0.07800
H37         H  0.92304415  0.50033554  0.46220219     0.09000
Cu38       Cu  0.95937373  0.37880612  0.48511098     0.44200
Cu39       Cu  0.87234660  0.43040060  0.45241176     0.42000
Cu40       Cu  0.86355588  0.34254244  0.45578661     0.43900
N41         N  0.94825635  0.32822939  0.48559945    -0.34600
N42         N  0.91233253  0.31528675  0.47481116    -0.28800
C43         C  0.91247687  0.28273235  0.47976568    -0.04900
C44         C  0.95063613  0.27448341  0.49415239     0.07300
C45         C  0.97267948  0.30394542  0.49749351     0.01100
H46         H  0.88642689  0.26637006  0.47362174     0.08700
H47         H  0.00335869  0.30765157  0.50877638     0.07800
N48         N  0.81411440  0.37279697  0.44242416    -0.36000
N49         N  0.81654851  0.40513996  0.44054079    -0.28200
C50         C  0.77713811  0.41711045  0.43371853    -0.03400
C51         C  0.74886047  0.39085534  0.43172244     0.05200
C52         C  0.77349617  0.36328104  0.43735463     0.03300
H53         H  0.76914181  0.44294909  0.43240686     0.08400
H54         H  0.76236676  0.33814727  0.43895973     0.07200
C55         C  0.06317933  0.11713070  0.05668024     0.80300
N56         N  0.04032078  0.13619707  0.03689099    -0.78000
C57         C  0.00210539  0.14950059  0.04488861     0.82800
N58         N  0.98440332  0.14105056  0.07226207    -0.77900
C59         C  0.00632543  0.12179335  0.09251364     0.82900
N60         N  0.04657762  0.11086479  0.08513976    -0.79600
N61         N  0.42890616  0.04796230  0.99275229    -0.27200
N62         N  0.46113209  0.06734698  0.98445716    -0.35000
C63         C  0.49531338  0.04856620  0.47711573     0.01200
C64         C  0.48412168  0.01589039  0.98090734     0.07200
C65         C  0.44182398  0.01647883  0.99078766    -0.05900
H66         H  0.52605660  0.05805371  0.46952556     0.07800
H67         H  0.42179453  0.99552704  0.99623987     0.09000
Cu68       Cu  0.45772104  0.11852463  0.48267709     0.44200
Cu69       Cu  0.36808825  0.06408106  0.00633729     0.42000
Cu70       Cu  0.35325511  0.15085798  0.99657596     0.43900
N71         N  0.44343239  0.16851067  0.48011225    -0.34600
N72         N  0.40435744  0.18007351  0.98491790    -0.28800
C73         C  0.40413257  0.21274447  0.48068132    -0.04900
C74         C  0.44529326  0.22252916  0.47282378     0.07300
C75         C  0.46937718  0.19371791  0.47259825     0.01100
H76         H  0.37591319  0.22811529  0.48302129     0.08700
H77         H  0.50284746  0.19094849  0.46634395     0.07800
N78         N  0.30558150  0.11974581  0.01107357    -0.36000
N79         N  0.31014553  0.08785270  0.01576631    -0.28200
C80         C  0.27206080  0.07551563  0.02532135    -0.03400
C81         C  0.24249659  0.10108270  0.02615730     0.05200
C82         C  0.26502108  0.12859572  0.01708648     0.03300
H83         H  0.26595857  0.04983884  0.03008984     0.08400
H84         H  0.25271162  0.15335598  0.01470929     0.07200
C85         C  0.56554582  0.37771991  0.41373651     0.80300
N86         N  0.54770879  0.38505127  0.38581850    -0.78000
C87         C  0.50654066  0.37570173  0.37922882     0.82800
N88         N  0.48435614  0.35754103  0.40006824    -0.77900
C89         C  0.50292608  0.34792082  0.42687338     0.82900
N90         N  0.54267005  0.35926369  0.43393347    -0.79600
N91         N  0.68394008  0.08555312  0.19241078    -0.27200
N92         N  0.68819532  0.11616451  0.20200860    -0.35000
C93         C  0.72853764  0.12639448  0.19704416     0.01200
C94         C  0.75166542  0.10124498  0.18365561     0.07200
C95         C  0.72224019  0.07558405  0.18077823    -0.05900
H96         H  0.74052260  0.15034141  0.20356222     0.07800
H97         H  0.72877828  0.05109474  0.17238318     0.09000
Cu98       Cu  0.64105215  0.14354859  0.22327105     0.44200
Cu99       Cu  0.62573122  0.05987579  0.19906224     0.42000
Cu100      Cu  0.53815547  0.11017983  0.23511530     0.43900
N101        N  0.59139036  0.17077899  0.24157946    -0.34600
N102        N  0.55237390  0.15877467  0.24556309    -0.28800
C103        C  0.52669390  0.18274692  0.25641776    -0.04900
C104        C  0.55099195  0.21121219  0.25958158     0.07300
C105        C  0.59187640  0.20254161  0.24984372     0.01100
H106        H  0.49292393  0.17963773  0.26169693     0.08700
H107        H  0.61975597  0.21829866  0.24791917     0.07800
N108        N  0.53329477  0.06068135  0.22387541    -0.36000
N109        N  0.56402680  0.04252239  0.21130734    -0.28200
C110        C  0.54936888  0.01144308  0.20873586    -0.03400
C111        C  0.50768691  0.01004413  0.22016089     0.05200
C112        C  0.49866950  0.04172051  0.22943613     0.03300
H113        H  0.56797869  0.99120572  0.19965861     0.08400
H114        H  0.46933243  0.05032459  0.24011250     0.07200
C115        C  0.43272021  0.37351341  0.31305306     0.80300
N116        N  0.45228756  0.38450326  0.33917612    -0.78000
C117        C  0.49225085  0.37338407  0.34716356     0.82800
N118        N  0.51156728  0.35014021  0.32957228    -0.77900
C119        C  0.49110592  0.33717107  0.30481556     0.82900
N120        N  0.45241410  0.34967333  0.29635386    -0.79600
N121        N  0.31069544  0.90156030  0.26324082    -0.27200
N122        N  0.31110706  0.86910153  0.26469961    -0.35000
C123        C  0.27142563  0.85811789  0.27123265     0.01200
C124        C  0.24414142  0.88476102  0.27422346     0.07200
C125        C  0.27026382  0.91204408  0.26932334    -0.05900
H126        H  0.26292504  0.83241103  0.27301718     0.07800
H127        H  0.26016405  0.93748038  0.26880846     0.09000
Cu128      Cu  0.36352031  0.83999833  0.25432740     0.44200
Cu129      Cu  0.36537284  0.92874998  0.24995201     0.42000
Cu130      Cu  0.45381594  0.87879550  0.21893417     0.43900
N131        N  0.41237140  0.81411098  0.23338189    -0.34600
N132        N  0.44444060  0.82839385  0.21857717    -0.28800
C133        C  0.46736023  0.80524394  0.20381954    -0.04900
C134        C  0.44899830  0.77502353  0.21017173     0.07300
C135        C  0.41434647  0.78149572  0.22899207     0.01100
H136        H  0.49486255  0.81007766  0.18926577     0.08700
H137        H  0.39093368  0.76402256  0.23746046     0.07800
N138        N  0.45632435  0.92943762  0.22359514    -0.36000
N139        N  0.42476424  0.94779859  0.23467323    -0.28200
C140        C  0.43793500  0.97939421  0.23477935    -0.03400
C141        C  0.47962197  0.98085330  0.22331471     0.05200
C142        C  0.49007968  0.94870882  0.21649116     0.03300
H143        H  0.41874967  0.99977035  0.24292808     0.08400
H144        H  0.52029389  0.93981488  0.20737386     0.07200
C145        C  0.55752689  0.61462246  0.15414698     0.80300
N146        N  0.53407316  0.63617644  0.17106575    -0.78000
C147        C  0.49776543  0.65007633  0.15977115     0.82800
N148        N  0.48293302  0.64050713  0.13195571    -0.77900
C149        C  0.50539655  0.61901027  0.11450859     0.82900
N150        N  0.54381584  0.60702794  0.12508442    -0.79600
N151        N  0.56659397  0.95398011  0.46548018    -0.27200
N152        N  0.53382891  0.93498618  0.47351461    -0.35000
C153        C  0.49966416  0.95408362  0.48001744     0.01200
C154        C  0.51128067  0.98660538  0.47592004     0.07200
C155        C  0.55390007  0.98561546  0.46670194    -0.05900
H156        H  0.46867835  0.94489737  0.48742381     0.07800
H157        H  0.57434344  0.00638311  0.46141649     0.09000
Cu158      Cu  0.53594785  0.88387920  0.47645901     0.44200
Cu159      Cu  0.62776815  0.93684822  0.45330287     0.42000
Cu160      Cu  0.63908924  0.84968557  0.46017486     0.43900
N161        N  0.54953932  0.83396971  0.48094431    -0.34600
N162        N  0.58824621  0.82191013  0.47554237    -0.28800
C163        C  0.58880134  0.78975335  0.48241772    -0.04900
C164        C  0.54836135  0.78087244  0.49268045     0.07300
C165        C  0.52408526  0.80950437  0.49118396     0.01100
H166        H  0.61674276  0.77409867  0.48007542     0.08700
H167        H  0.49088946  0.81257508  0.49808762     0.07800
N168        N  0.68804536  0.87996047  0.44582018    -0.36000
N169        N  0.68500079  0.91219141  0.44285969    -0.28200
C170        C  0.72377746  0.92405349  0.43413158    -0.03400
C171        C  0.75224304  0.89781417  0.43196247     0.05200
C172        C  0.72826563  0.87041497  0.43940814     0.03300
H173        H  0.73112919  0.94980982  0.43092020     0.08400
H174        H  0.73950122  0.84527815  0.44073475     0.07200
C175        C  0.43473545  0.61765433  0.04748899     0.80300
N176        N  0.45429989  0.64132403  0.03044606    -0.78000
C177        C  0.49275207  0.65416248  0.03884705     0.82800
N178        N  0.51328728  0.64152608  0.06384178    -0.77900
C179        C  0.49417468  0.61837608  0.08179134     0.82900
N180        N  0.45450338  0.60685862  0.07366008    -0.79600
N181        N  0.06494195  0.54458858  0.99674767    -0.27200
N182        N  0.03356348  0.56275476  0.98484277    -0.35000
C183        C  0.99937977  0.54334373  0.47916099     0.01200
C184        C  0.00958285  0.51154563  0.98777488     0.07200
C185        C  0.05128546  0.51326365  0.99890781    -0.05900
H186        H  0.96954593  0.55175362  0.46891965     0.07800
H187        H  0.07073400  0.49307066  0.00733168     0.09000
Cu188      Cu  0.03698553  0.61306513  0.47573839     0.44200
Cu189      Cu  0.12640448  0.56164079  0.00834275     0.42000
Cu190      Cu  0.13924424  0.64734299  0.99194711     0.43900
N191        N  0.04998960  0.66298190  0.47002498    -0.34600
N192        N  0.08849177  0.67525469  0.47573053    -0.28800
C193        C  0.08831770  0.70763333  0.46965298    -0.04900
C194        C  0.04751036  0.71652254  0.45986608     0.07300
C195        C  0.02398449  0.68746768  0.46034763     0.01100
H196        H  0.11592315  0.72355936  0.47238646     0.08700
H197        H  0.99078595  0.68416737  0.45347770     0.07800
N198        N  0.18830747  0.61793698  0.00851283    -0.36000
N199        N  0.18469442  0.58633083  0.01502024    -0.28200
C200        C  0.22366554  0.57489749  0.02403294    -0.03400
C201        C  0.25295986  0.60067940  0.02264454     0.05200
C202        C  0.22909089  0.62745555  0.01296807     0.03300
H203        H  0.23055251  0.54955683  0.02980663     0.06800
H204        H  0.24069495  0.65213384  0.00885070     0.07200
C205        C  0.93121012  0.87710639  0.40193487     0.80300
N206        N  0.94965920  0.88648318  0.37483037    -0.78000
C207        C  0.98963329  0.87526901  0.36704363     0.82800
N208        N  0.01006082  0.85365828  0.38598738    -0.77900
C209        C  0.99068155  0.84220551  0.41181986     0.82900
N210        N  0.95187764  0.85463226  0.41982071    -0.79600
N211        N  0.92160078  0.53948381  0.22403467    -0.27200
N212        N  0.95222774  0.55956123  0.23381709    -0.35000
C213        C  0.98862127  0.54235032  0.23854691     0.01200
C214        C  0.98077692  0.50984566  0.23160963     0.07200
C215        C  0.93800407  0.50887468  0.22242462    -0.05900
H216        H  0.01836367  0.55272487  0.24711447     0.07800
H217        H  0.91987597  0.48739979  0.21561154     0.09000
Cu218      Cu  0.94478778  0.60936962  0.24199659     0.44200
Cu219      Cu  0.85824922  0.55405801  0.21415185     0.42000
Cu220      Cu  0.83983284  0.64003365  0.23342161     0.43900
N221        N  0.93037609  0.65857000  0.24838135    -0.34600
N222        N  0.89082692  0.66999931  0.24557739    -0.28800
C223        C  0.89110983  0.70264497  0.25030513    -0.04900
C224        C  0.93311269  0.71238614  0.25615879     0.07300
C225        C  0.95706998  0.68359874  0.25491403     0.01100
H226        H  0.86292961  0.71821226  0.24885933     0.08700
H227        H  0.99128400  0.68082667  0.25872975     0.07800
N228        N  0.79325304  0.60896960  0.21583917    -0.36000
N229        N  0.79916068  0.57803380  0.20758095    -0.28200
C230        C  0.76199331  0.56657648  0.19536774    -0.03400
C231        C  0.73151200  0.59156101  0.19643975     0.05200
C232        C  0.75262493  0.61783836  0.20959170     0.03300
H233        H  0.75733201  0.54189054  0.18683959     0.08400
H234        H  0.73953200  0.64204068  0.21385599     0.07200
C235        C  0.06125915  0.87115359  0.30005532     0.80300
N236        N  0.03802198  0.84978512  0.28267727    -0.78000
C237        C  0.99770988  0.84045312  0.29098898     0.82800
N238        N  0.97960769  0.85436969  0.31613629    -0.77900
C239        C  0.00253854  0.87467758  0.33462407     0.82900
N240        N  0.04373891  0.88265505  0.32670691    -0.79600
C241        C  0.00597249  0.78697790  0.26333826    -0.21200
C242        C  0.97915446  0.80953848  0.27853083    -0.09200
C243        C  0.93612709  0.80050652  0.28442507     0.29600
C244        C  0.92116763  0.76923883  0.27637625    -0.21200
C245        C  0.94871315  0.74616792  0.26262368    -0.09300
C246        C  0.99115809  0.75564549  0.25563571     0.29600
F247        F  0.01855650  0.73477771  0.24127440    -0.19800
H248        H  0.03917744  0.79303847  0.25835957     0.18000
H249        H  0.88827770  0.76273756  0.28188641     0.18000
F250        F  0.90862907  0.82155219  0.29852411    -0.19800
C251        C  0.97733518  0.79073966  0.44209969    -0.21200
C252        C  0.00647114  0.81163600  0.42682099    -0.09200
C253        C  0.04972667  0.80177535  0.42433029     0.29600
C254        C  0.06290978  0.77115129  0.43568779    -0.21200
C255        C  0.03332749  0.74964728  0.44963747    -0.09300
C256        C  0.99050688  0.76009175  0.45337126     0.29600
F257        F  0.96143093  0.74095638  0.46826674    -0.19800
H258        H  0.94386883  0.79767940  0.44464884     0.18000
H259        H  0.09620209  0.76392153  0.43280295     0.18000
F260        F  0.07931378  0.82165132  0.41085662    -0.19800
C261        C  0.37021376  0.62254846  0.01349318    -0.21200
C262        C  0.38924565  0.60877083  0.03997110    -0.09200
C263        C  0.36345340  0.58882709  0.05921188     0.29600
C264        C  0.31931272  0.58465525  0.05279634    -0.21200
C265        C  0.30025769  0.60047866  0.02738813    -0.09300
C266        C  0.32652808  0.61864773  0.00734468     0.29600
F267        F  0.30988984  0.63301747  0.98170727    -0.19800
H268        H  0.38887450  0.63733576  0.99764582     0.18000
H269        H  0.29967585  0.57032915  0.06842445     0.18000
F270        F  0.38026794  0.57427445  0.08468064    -0.19800
C271        C  0.81691324  0.91298026  0.40011679    -0.21200
C272        C  0.79912611  0.89772498  0.42620042    -0.09200
C273        C  0.82584719  0.87880732  0.44533741     0.29600
C274        C  0.86880093  0.87375650  0.43775614    -0.21200
C275        C  0.88649816  0.88693268  0.41058339    -0.09300
C276        C  0.86025003  0.90747746  0.39212595     0.29600
F277        F  0.87569799  0.92124937  0.36590883    -0.19800
H278        H  0.79670972  0.92766673  0.38508301     0.18000
H279        H  0.88779100  0.85839184  0.45298508     0.18000
F280        F  0.81012276  0.86445055  0.47123008    -0.19800
C281        C  0.54984981  0.69654087  0.03023585    -0.21200
C282        C  0.50745248  0.68577435  0.02524124    -0.09200
C283        C  0.47876613  0.70667427  0.00917007     0.29600
C284        C  0.49230037  0.73752105  0.49880380    -0.21200
C285        C  0.53464367  0.74812049  0.50379957    -0.09300
C286        C  0.56344417  0.72728047  0.01960486     0.29600
F287        F  0.60425650  0.73704810  0.02594055    -0.19800
H288        H  0.57251425  0.68127976  0.04275163     0.18000
H289        H  0.46960219  0.75313174  0.48670161     0.18000
F290        F  0.43717041  0.69797868  0.00418318    -0.19800
C291        C  0.62998755  0.58677066  0.14745087    -0.21200
C292        C  0.60055184  0.60400199  0.16609201    -0.09200
C293        C  0.61386501  0.61309438  0.19602743     0.29600
C294        C  0.65585107  0.60724444  0.20590838    -0.21200
C295        C  0.68576963  0.59177558  0.18677301    -0.09300
C296        C  0.67225913  0.58055662  0.15773472     0.29600
F297        F  0.70059198  0.56570066  0.13854631    -0.19800
H298        H  0.62088908  0.57921141  0.12447577     0.18000
H299        H  0.66543083  0.61573744  0.22851927     0.18000
F300        F  0.58701602  0.62877635  0.21574616    -0.19800
C301        C  0.12819024  0.85572190  0.27145792    -0.21200
C302        C  0.10758834  0.87684534  0.29238887    -0.09200
C303        C  0.13212469  0.90217703  0.30594451     0.29600
C304        C  0.17622044  0.90548847  0.29918251    -0.21200
C305        C  0.19683339  0.88334644  0.27929372    -0.09300
C306        C  0.17208518  0.85871080  0.26513654     0.29600
F307        F  0.19017900  0.83755063  0.24482381    -0.19800
H308        H  0.11056049  0.83613856  0.26030134     0.18000
H309        H  0.19457621  0.92475108  0.31024522     0.18000
F310        F  0.11372994  0.92368983  0.32575824    -0.19800
C311        C  0.47137586  0.70733904  0.15342932    -0.21200
C312        C  0.48232318  0.68113778  0.17310499    -0.09200
C313        C  0.48192704  0.68602975  0.20511040     0.29600
C314        C  0.47050727  0.71665715  0.21710655    -0.21200
C315        C  0.46081252  0.74295553  0.19734236    -0.09300
C316        C  0.46124529  0.73814729  0.16540412     0.29600
F317        F  0.45120970  0.76308377  0.14583898    -0.19800
H318        H  0.47202245  0.70427887  0.12867535     0.18000
H319        H  0.47001451  0.72007714  0.24181689     0.18000
F320        F  0.49238495  0.66122430  0.22470325    -0.19800
C321        C  0.49315175  0.25344859  0.26599028    -0.21200
C322        C  0.53623830  0.24398749  0.27018791    -0.09200
C323        C  0.56465879  0.26599999  0.28474809     0.29600
C324        C  0.54998837  0.29651924  0.29511558    -0.21200
C325        C  0.50680528  0.30593123  0.29117293    -0.09300
C326        C  0.47849047  0.28404133  0.27619446     0.29600
F327        F  0.43619971  0.29144360  0.27236666    -0.19800
H328        H  0.47061359  0.23711353  0.25475347     0.18000
H329        H  0.57244150  0.31264733  0.30671555     0.18000
F330        F  0.60623981  0.25761507  0.29026362    -0.19800
C331        C  0.42950057  0.27868852  0.45198839    -0.21200
C332        C  0.45934367  0.25609381  0.46421781    -0.09200
C333        C  0.50264474  0.26560956  0.46709573     0.29600
C334        C  0.51598884  0.29637405  0.45660138    -0.21200
C335        C  0.48665424  0.31821899  0.44271542    -0.09300
C336        C  0.44299207  0.30937227  0.44112157     0.29600
F337        F  0.41354362  0.33000984  0.42836814    -0.19800
H338        H  0.39589502  0.27216341  0.44961064     0.18000
H339        H  0.54985453  0.30236448  0.45809850     0.18000
F340        F  0.53235239  0.24520167  0.47980421    -0.19800
C341        C  0.17959554  0.08610914  0.05957461    -0.21200
C342        C  0.19593309  0.10030184  0.03251719    -0.09200
C343        C  0.16793427  0.11723097  0.01272805     0.29600
C344        C  0.12484979  0.12105731  0.02037351    -0.21200
C345        C  0.10837126  0.10873634  0.04830170    -0.09300
C346        C  0.13614404  0.09052030  0.06766929     0.29600
F347        F  0.12192824  0.07788050  0.09472244    -0.19800
H348        H  0.20092297  0.07308961  0.07515117     0.18000
H349        H  0.10477544  0.13484506  0.00454519     0.18000
F350        F  0.18245316  0.13076629  0.98608715    -0.19800
C351        C  0.67746608  0.37118173  0.44855135    -0.21200
C352        C  0.70159271  0.39128051  0.42893221    -0.09200
C353        C  0.68048917  0.40928679  0.40579294     0.29600
C354        C  0.63599179  0.40551891  0.40128334    -0.21200
C355        C  0.61187482  0.38425809  0.42021232    -0.09300
C356        C  0.63321185  0.36790393  0.44464003     0.29600
F357        F  0.61203343  0.34761701  0.46428273    -0.19800
H358        H  0.69313447  0.35747289  0.46683499     0.18000
H359        H  0.62059933  0.41871862  0.38258787     0.18000
F360        F  0.70321171  0.42898852  0.38652806    -0.19800
C361        C  0.01845537  0.20084180  0.01597864    -0.21200
C362        C  0.98760908  0.17968805  0.02900480    -0.09200
C363        C  0.94418401  0.18931035  0.02909487     0.29600
C364        C  0.93218130  0.21986823  0.01695311    -0.21200
C365        C  0.96340378  0.24155523  0.50526198    -0.09300
C366        C  0.00663894  0.23159475  0.50456033     0.29600
F367        F  0.03751918  0.25150330  0.49272665    -0.19800
H368        H  0.05221651  0.19414103  0.51574659     0.18000
H369        H  0.89861269  0.22700929  0.01763501     0.18000
F370        F  0.91350133  0.16935333  0.04114291    -0.19800
C371        C  0.82483205  0.11895680  0.19923997    -0.21200
C372        C  0.79889772  0.10198370  0.17818523    -0.09200
C373        C  0.81826990  0.08852622  0.15182094     0.29600
C374        C  0.86234334  0.09388312  0.14599858    -0.21200
C375        C  0.88788019  0.11235692  0.16654604    -0.09300
C376        C  0.86852621  0.12389005  0.19382745     0.29600
F377        F  0.89128398  0.14072396  0.21529992    -0.19800
H378        H  0.81103213  0.12893463  0.22009593     0.18000
H379        H  0.87613126  0.08433440  0.12497680     0.18000
F380        F  0.79432613  0.07179776  0.13095447    -0.19800
C381        C  0.31934496  0.41107313  0.31479613    -0.21200
C382        C  0.29985863  0.39430224  0.29024173    -0.09200
C383        C  0.32520131  0.37355017  0.27195432     0.29600
C384        C  0.36838335  0.36830597  0.27897855    -0.21200
C385        C  0.38777490  0.38322403  0.30467340    -0.09300
C386        C  0.36296047  0.40552857  0.32214216     0.29600
F387        F  0.38019480  0.42123757  0.34674339    -0.19800
H388        H  0.30033451  0.42724077  0.32912480     0.18000
H389        H  0.38626691  0.35158653  0.26448766     0.18000
F390        F  0.30801879  0.35780722  0.24731878    -0.19800
C391        C  0.98298483  0.20318741  0.20425272    -0.21200
C392        C  0.01080001  0.18438460  0.18575383    -0.09200
C393        C  0.05310052  0.19582666  0.18093306     0.29600
C394        C  0.06655518  0.22563542  0.19376015    -0.21200
C395        C  0.03793154  0.24498896  0.21090655    -0.09300
C396        C  0.99614694  0.23330488  0.21637828     0.29600
F397        F  0.96797821  0.25096038  0.23352459    -0.19800
H398        H  0.95027881  0.19523816  0.20851434     0.18000
H399        H  0.09895863  0.23420005  0.18929925     0.18000
F400        F  0.08129016  0.17865007  0.16338709    -0.19800
N401        N  0.06792803  0.45153734  0.74697115    -0.27200
N402        N  0.03654454  0.43144370  0.73845217    -0.35000
C403        C  0.00143443  0.44916904  0.73115653     0.01200
C404        C  0.01072161  0.48198288  0.73529646     0.07200
C405        C  0.05316496  0.48266250  0.74527693    -0.05900
H406        H  0.97107575  0.43875616  0.72382897     0.07800
H407        H  0.07177534  0.50416336  0.75131732     0.09000
Cu408      Cu  0.03990744  0.38059112  0.73671759     0.44200
Cu409      Cu  0.12946189  0.43625543  0.76136763     0.42000
Cu410      Cu  0.13953655  0.34771485  0.75669199     0.43900
N411        N  0.05255290  0.33075238  0.73305122    -0.34600
N412        N  0.09084893  0.31867772  0.73974072    -0.28800
C413        C  0.09159250  0.28643645  0.73319520    -0.04900
C414        C  0.05142242  0.27761276  0.72222037     0.07300
C415        C  0.02742393  0.30637722  0.72242012     0.01100
H416        H  0.11934826  0.27064929  0.73613524     0.08700
H417        H  0.99471577  0.30961071  0.71435647     0.07800
N418        N  0.18787514  0.37831844  0.77160441    -0.36000
N419        N  0.18583948  0.41070013  0.77346744    -0.28200
C420        C  0.22508588  0.42200974  0.78196588    -0.03400
C421        C  0.25270527  0.39526181  0.78510922     0.05200
C422        C  0.22769423  0.36819796  0.77858391     0.03300
H423        H  0.23345195  0.44769818  0.78410052     0.08400
H424        H  0.23807260  0.34283014  0.77788568     0.07200
C425        C  0.93341537  0.12125448  0.65911763     0.80300
N426        N  0.95479862  0.14265007  0.67756793    -0.78000
C427        C  0.99402976  0.15469373  0.66984628     0.82800
N428        N  0.01311084  0.14374281  0.64374845    -0.77900
C429        C  0.99233034  0.12263800  0.62466983     0.82900
N430        N  0.95198670  0.11207353  0.63208747    -0.79600
N431        N  0.93004703  0.44841025  0.97003451    -0.27200
N432        N  0.96109774  0.43004061  0.98202364    -0.35000
C433        C  0.99369007  0.44972603  0.99081413     0.01200
C434        C  0.98275306  0.48191403  0.98395725     0.07200
C435        C  0.94217349  0.48012772  0.97090912    -0.05900
H436        H  0.02354053  0.44112175  0.00088629     0.07800
H437        H  0.92306251  0.50035219  0.96216101     0.09000
Cu438      Cu  0.95935052  0.37882142  0.98509857     0.44200
Cu439      Cu  0.87234016  0.43041678  0.95239575     0.42000
Cu440      Cu  0.86352115  0.34255483  0.95578998     0.43900
N441        N  0.94822896  0.32824416  0.98559020    -0.34600
N442        N  0.91230378  0.31530049  0.97480525    -0.28800
C443        C  0.91245188  0.28274558  0.97975671    -0.04900
C444        C  0.95061488  0.27449729  0.99413845     0.07300
C445        C  0.97265620  0.30396026  0.99747979     0.01100
H446        H  0.88640190  0.26638268  0.97361413     0.08700
H447        H  0.00333775  0.30766701  0.00875912     0.07800
N448        N  0.81408473  0.37281678  0.94243686    -0.36000
N449        N  0.81652968  0.40515889  0.94054378    -0.28200
C450        C  0.77712171  0.41713431  0.93372206    -0.03400
C451        C  0.74883576  0.39088373  0.93173690     0.05200
C452        C  0.77346195  0.36330676  0.93737573     0.03300
H453        H  0.76913376  0.44297387  0.93240025     0.08400
H454        H  0.76232420  0.33817560  0.93898737     0.07200
C455        C  0.06317189  0.11710673  0.55669678     0.80300
N456        N  0.04031567  0.13617243  0.53690531    -0.78000
C457        C  0.00210152  0.14947936  0.54490156     0.82800
N458        N  0.98439751  0.14103171  0.57227482    -0.77900
C459        C  0.00631787  0.12177635  0.59252864     0.82900
N460        N  0.04656919  0.11084523  0.58515669    -0.79600
N461        N  0.42889300  0.04796065  0.49275463    -0.27200
N462        N  0.46112317  0.06734507  0.48446798    -0.35000
C463        C  0.49532164  0.04856885  0.97710236     0.01200
C464        C  0.48410888  0.01588749  0.48091403     0.07200
C465        C  0.44180796  0.01647680  0.49078708    -0.05900
H466        H  0.52606092  0.05805681  0.96950452     0.07800
H467        H  0.42177512  0.99552538  0.49623415     0.09000
Cu468      Cu  0.45772987  0.11852572  0.98265417     0.44200
Cu469      Cu  0.36807781  0.06408257  0.50634002     0.42000
Cu470      Cu  0.35324400  0.15086439  0.49660978     0.43900
N471        N  0.44344208  0.16851127  0.98008710    -0.34600
N472        N  0.40434839  0.18007477  0.48494313    -0.28800
C473        C  0.40414050  0.21274387  0.98066128    -0.04900
C474        C  0.44530129  0.22253112  0.97280603     0.07300
C475        C  0.46938614  0.19372011  0.97257677     0.01100
H476        H  0.37592003  0.22811310  0.98300310     0.08700
H477        H  0.50285682  0.19095170  0.96632329     0.07800
N478        N  0.30557657  0.11974822  0.51111190    -0.36000
N479        N  0.31014183  0.08785274  0.51578997    -0.28200
C480        C  0.27206020  0.07551045  0.52534478    -0.03400
C481        C  0.24249650  0.10107666  0.52619693     0.05200
C482        C  0.26501766  0.12859466  0.51713500     0.03300
H483        H  0.26595841  0.04983063  0.53009909     0.08400
H484        H  0.25270481  0.15335488  0.51476602     0.07200
C485        C  0.56553018  0.37773803  0.91373100     0.80300
N486        N  0.54769395  0.38506404  0.88581122    -0.78000
C487        C  0.50652791  0.37570910  0.87922085     0.82800
N488        N  0.48434647  0.35754619  0.90006025    -0.77900
C489        C  0.50291735  0.34793020  0.92686632     0.82900
N490        N  0.54265792  0.35927858  0.93392709    -0.79600
N491        N  0.68391951  0.08557033  0.69239955    -0.27200
N492        N  0.68816961  0.11618129  0.70199920    -0.35000
C493        C  0.72851000  0.12641547  0.69703466     0.01200
C494        C  0.75164104  0.10126873  0.68364426     0.07200
C495        C  0.72222028  0.07560536  0.68076587    -0.05900
H496        H  0.74049163  0.15036276  0.70355464     0.07800
H497        H  0.72876214  0.05111687  0.67237021     0.09000
Cu498      Cu  0.64102057  0.14355662  0.72326451     0.44200
Cu499      Cu  0.62571730  0.05988866  0.69905115     0.42000
Cu500      Cu  0.53813090  0.11018409  0.73511319     0.43900
N501        N  0.59135824  0.17078486  0.74157454    -0.34600
N502        N  0.55234306  0.15877949  0.74556117    -0.28800
C503        C  0.52666300  0.18275153  0.75641667    -0.04900
C504        C  0.55096048  0.21121760  0.75957769     0.07300
C505        C  0.59184374  0.20254771  0.74983720     0.01100
H506        H  0.49289371  0.17964190  0.76169789     0.08700
H507        H  0.61972221  0.21830539  0.74790962     0.07800
N508        N  0.53328178  0.06068760  0.72386487    -0.36000
N509        N  0.56401628  0.04253292  0.71129436    -0.28200
C510        C  0.54936258  0.01145336  0.70871706    -0.03400
C511        C  0.50768075  0.01005003  0.72014057     0.05200
C512        C  0.49865871  0.04172353  0.72942122     0.03300
H513        H  0.56797516  0.99121906  0.69963678     0.08400
H514        H  0.46932003  0.05032344  0.74009828     0.07200
C515        C  0.43270529  0.37352530  0.81304525     0.80300
N516        N  0.45227266  0.38451251  0.83916940    -0.78000
C517        C  0.49223639  0.37339280  0.84715560     0.82800
N518        N  0.51155206  0.35015000  0.82956264    -0.77900
C519        C  0.49109003  0.33718299  0.80480514     0.82900
N520        N  0.45239907  0.34968692  0.79634406    -0.79600
N521        N  0.31070731  0.90156070  0.76322526    -0.27200
N522        N  0.31112087  0.86910256  0.76469431    -0.35000
C523        C  0.27143949  0.85812034  0.77123005     0.01200
C524        C  0.24415361  0.88476423  0.77421135     0.07200
C525        C  0.27027519  0.91204591  0.76930313    -0.05900
H526        H  0.26294021  0.83241389  0.77302266     0.07800
H527        H  0.26017465  0.93748187  0.76877945     0.09000
Cu528      Cu  0.36353853  0.84000017  0.75432908     0.44200
Cu529      Cu  0.36538247  0.92874654  0.74992938     0.42000
Cu530      Cu  0.45382788  0.87880004  0.71891472     0.43900
N531        N  0.41239127  0.81411656  0.73338036    -0.34600
N532        N  0.44445373  0.82840019  0.71856860    -0.28800
C533        C  0.46737021  0.80525138  0.70380780    -0.04900
C534        C  0.44901380  0.77503066  0.71016463     0.07300
C535        C  0.41436854  0.78150124  0.72899173     0.01100
H536        H  0.49486558  0.81008636  0.68924765     0.08700
H537        H  0.39095974  0.76402715  0.73746403     0.07800
N538        N  0.45633060  0.92944086  0.72356959    -0.36000
N539        N  0.42476804  0.94779906  0.73464769    -0.28200
C540        C  0.43793376  0.97939540  0.73475408    -0.03400
C541        C  0.47962005  0.98085763  0.72328969     0.05200
C542        C  0.49008312  0.94871453  0.71646554     0.03300
H543        H  0.41874612  0.99976960  0.74290428     0.08400
H544        H  0.52029950  0.93982305  0.70734967     0.07200
C545        C  0.55752879  0.61463198  0.65412719     0.80300
N546        N  0.53407866  0.63618888  0.67104472    -0.78000
C547        C  0.49777215  0.65009011  0.65975054     0.82800
N548        N  0.48293742  0.64052107  0.63193575    -0.77900
C549        C  0.50539587  0.61901926  0.61449047     0.82900
N550        N  0.54381483  0.60703517  0.62506579    -0.79600
N551        N  0.56661148  0.95398741  0.96547180    -0.27200
N552        N  0.53384956  0.93499216  0.97350985    -0.35000
C553        C  0.49968281  0.95408758  0.98001220     0.01200
C554        C  0.51129471  0.98660961  0.97591092     0.07200
C555        C  0.55391327  0.98562190  0.96669039    -0.05900
H556        H  0.46869967  0.94489989  0.98742275     0.07800
H557        H  0.57435416  0.00639062  0.96140363     0.09000
Cu558      Cu  0.53597768  0.88388678  0.97646486     0.44200
Cu559      Cu  0.62778989  0.93685752  0.95330200     0.42000
Cu560      Cu  0.63912444  0.84969330  0.96020445     0.43900
N561        N  0.54956892  0.83397928  0.98096374    -0.34600
N562        N  0.58827697  0.82191801  0.97556934    -0.28800
C563        C  0.58882842  0.78976241  0.98245097    -0.04900
C564        C  0.54838487  0.78088467  0.99271047     0.07300
C565        C  0.52411111  0.80951716  0.99120511     0.01100
H566        H  0.61676956  0.77410636  0.98011492     0.08700
H567        H  0.49091354  0.81259065  0.99810332     0.07800
N568        N  0.68808057  0.87997182  0.94585143    -0.36000
N569        N  0.68503027  0.91220125  0.94287778    -0.28200
C570        C  0.72380616  0.92406382  0.93414787    -0.03400
C571        C  0.75227801  0.89782696  0.93199213     0.05200
C572        C  0.72830416  0.87042836  0.93944677     0.03300
H573        H  0.73115193  0.94981934  0.93092340     0.08400
H574        H  0.73954269  0.84529274  0.94078009     0.07200
C575        C  0.43472441  0.61764993  0.54747522     0.80300
N576        N  0.45429304  0.64131017  0.53042344    -0.78000
C577        C  0.49274744  0.65414834  0.53881918     0.82800
N578        N  0.51328254  0.64151872  0.56381689    -0.77900
C579        C  0.49416719  0.61837724  0.58177450     0.82900
N580        N  0.45449187  0.60686225  0.57364949    -0.79600
N581        N  0.06492180  0.54458057  0.49676911    -0.27200
N582        N  0.03353812  0.56274299  0.48486614    -0.35000
C583        C  0.99940582  0.54335741  0.97912760     0.01200
C584        C  0.00956214  0.51153472  0.48781236     0.07200
C585        C  0.05126802  0.51325588  0.49893768    -0.05900
H586        H  0.96957501  0.55177080  0.96888435     0.07800
H587        H  0.07072134  0.49306497  0.50736019     0.09000
Cu588      Cu  0.03702086  0.61308115  0.97572836     0.44200
Cu589      Cu  0.12638808  0.56163367  0.50834972     0.42000
Cu590      Cu  0.13921959  0.64732442  0.49193068     0.43900
N591        N  0.05002861  0.66299950  0.97001603    -0.34600
N592        N  0.08852736  0.67527372  0.97573095    -0.28800
C593        C  0.08835652  0.70765183  0.96964894    -0.04900
C594        C  0.04755415  0.71653929  0.95984993     0.07300
C595        C  0.02402878  0.68748397  0.96032853     0.01100
H596        H  0.11595984  0.72357884  0.97238853     0.08700
H597        H  0.99083371  0.68418263  0.95345043     0.07800
N598        N  0.18829007  0.61792751  0.50850059    -0.36000
N599        N  0.18467891  0.58632373  0.51501791    -0.28200
C600        C  0.22365034  0.57489461  0.52403463    -0.03400
C601        C  0.25294357  0.60067688  0.52263855     0.05200
C602        C  0.22907283  0.62744908  0.51295357     0.03300
H603        H  0.23053811  0.54955625  0.52981680     0.06800
H604        H  0.24067477  0.65212673  0.50882998     0.07200
C605        C  0.93123677  0.87712010  0.90193046     0.80300
N606        N  0.94967808  0.88649853  0.87482359    -0.78000
C607        C  0.98965211  0.87528727  0.86703200     0.82800
N608        N  0.01008715  0.85367789  0.88597319    -0.77900
C609        C  0.99071461  0.84222238  0.91180709     0.82900
N610        N  0.95191108  0.85464637  0.91981269    -0.79600
N611        N  0.92159385  0.53950108  0.72403023    -0.27200
N612        N  0.95221881  0.55957614  0.73381962    -0.35000
C613        C  0.98860971  0.54236328  0.73855349     0.01200
C614        C  0.98076501  0.50985961  0.73161187     0.07200
C615        C  0.93799515  0.50889144  0.72241973    -0.05900
H616        H  0.01834999  0.55273556  0.74712735     0.07800
H617        H  0.91986735  0.48741806  0.71560218     0.09000
Cu618      Cu  0.94477403  0.60938290  0.74200365     0.44200
Cu619      Cu  0.85824693  0.55408009  0.71414235     0.42000
Cu620      Cu  0.83981530  0.64005184  0.73342811     0.43900
N621        N  0.93036161  0.65858325  0.74838550    -0.34600
N622        N  0.89081406  0.67001544  0.74557971    -0.28800
C623        C  0.89110211  0.70266190  0.75030337    -0.04900
C624        C  0.93310655  0.71240020  0.75615709     0.07300
C625        C  0.95705869  0.68361016  0.75491633     0.01100
H626        H  0.86292416  0.71823133  0.74885537     0.08700
H627        H  0.99127176  0.68083429  0.75873386     0.07800
N628        N  0.79324187  0.60898558  0.71583965    -0.36000
N629        N  0.79915699  0.57805290  0.70757386    -0.28200
C630        C  0.76199414  0.56659437  0.69535505    -0.03400
C631        C  0.73150742  0.59157444  0.69643133     0.05200
C632        C  0.75261256  0.61785075  0.70959173     0.03300
H633        H  0.75733968  0.54191038  0.68682004     0.08400
H634        H  0.73951390  0.64205036  0.71386057     0.07200
C635        C  0.06126890  0.87116924  0.80004025     0.80300
N636        N  0.03803236  0.84979642  0.78266661    -0.78000
C637        C  0.99772110  0.84046497  0.79098056     0.82800
N638        N  0.97961972  0.85438437  0.81612683    -0.77900
C639        C  0.00255059  0.87469627  0.83461096     0.82900
N640        N  0.04374935  0.88267528  0.82669033    -0.79600
C641        C  0.00598759  0.78697901  0.76334971    -0.21200
C642        C  0.97916535  0.80954940  0.77852540    -0.09200
C643        C  0.93613050  0.80052816  0.78440475     0.29600
C644        C  0.92116571  0.76926158  0.77635671    -0.21200
C645        C  0.94871353  0.74618109  0.76262005    -0.09300
C646        C  0.99116791  0.75564807  0.75564764     0.29600
F647        F  0.01857120  0.73477166  0.74130210    -0.19800
H648        H  0.03919897  0.79303118  0.75838378     0.18000
H649        H  0.88826897  0.76276919  0.78185511     0.18000
F650        F  0.90862966  0.82158419  0.79848745    -0.19800
C651        C  0.97737434  0.79075216  0.94208015    -0.21200
C652        C  0.00650877  0.81165201  0.92680455    -0.09200
C653        C  0.04976609  0.80179480  0.92431522     0.29600
C654        C  0.06295250  0.77117071  0.93567245    -0.21200
C655        C  0.03337108  0.74966372  0.94961957    -0.09300
C656        C  0.99054889  0.76010497  0.95335093     0.29600
F657        F  0.96147384  0.74096724  0.96824452    -0.19800
H658        H  0.94390678  0.79768892  0.94462814     0.18000
H659        H  0.09624621  0.76394341  0.93279024     0.18000
F660        F  0.07935147  0.82167469  0.91084454    -0.19800
C661        C  0.37019657  0.62254984  0.51348585    -0.21200
C662        C  0.38923187  0.60876971  0.53996142    -0.09200
C663        C  0.36344176  0.58882422  0.55920198     0.29600
C664        C  0.31929990  0.58465351  0.55278890    -0.21200
C665        C  0.30024188  0.60047878  0.52738259    -0.09300
C666        C  0.32651066  0.61864884  0.50733885     0.29600
F667        F  0.30987147  0.63301729  0.48170115    -0.19800
H668        H  0.38885526  0.63733802  0.49763798     0.18000
H669        H  0.29966506  0.57032520  0.56841657     0.18000
F670        F  0.38026078  0.57426630  0.58466660    -0.19800
C671        C  0.81694052  0.91299981  0.90013887    -0.21200
C672        C  0.79916014  0.89773838  0.92622207    -0.09200
C673        C  0.82588705  0.87881585  0.94535081     0.29600
C674        C  0.86883733  0.87376363  0.93776025    -0.21200
C675        C  0.88652701  0.88694550  0.91058734    -0.09300
C676        C  0.86027480  0.90749725  0.89213963     0.29600
F677        F  0.87571677  0.92127768  0.86592460    -0.19800
H678        H  0.79673365  0.92769149  0.88511196     0.18000
H679        H  0.88783091  0.85839435  0.95298282     0.18000
F680        F  0.81017218  0.86445651  0.97124520    -0.19800
C681        C  0.54984172  0.69652813  0.53020271    -0.21200
C682        C  0.50744615  0.68575773  0.52520768    -0.09200
C683        C  0.47875806  0.70665335  0.50913301     0.29600
C684        C  0.49231366  0.73754064  0.99884019    -0.21200
C685        C  0.53466022  0.74813508  0.00383295    -0.09300
C686        C  0.56343129  0.72726873  0.51957132     0.29600
F687        F  0.60424184  0.73704068  0.52590728    -0.19800
H688        H  0.57250774  0.68126993  0.54272015     0.18000
H689        H  0.46961714  0.75315375  0.98673925     0.18000
F690        F  0.43716499  0.69795284  0.50414274    -0.19800
C691        C  0.62999228  0.58678337  0.64743263    -0.21200
C692        C  0.60055178  0.60400965  0.66607387    -0.09200
C693        C  0.61385844  0.61309682  0.69601222     0.29600
C694        C  0.65584308  0.60724813  0.70589594    -0.21200
C695        C  0.68576696  0.59178576  0.68676054    -0.09300
C696        C  0.67226284  0.58057033  0.65771941     0.29600
F697        F  0.70060070  0.56571910  0.63853155    -0.19800
H698        H  0.62089853  0.57922801  0.62445542     0.18000
H699        H  0.66541759  0.61573748  0.72850920     0.18000
F700        F  0.58700420  0.62877274  0.71573153    -0.19800
C701        C  0.12820434  0.85571917  0.77145797    -0.21200
C702        C  0.10759841  0.87685768  0.79237338    -0.09200
C703        C  0.13213078  0.90220112  0.80591320     0.29600
C704        C  0.17622757  0.90550866  0.79915235    -0.21200
C705        C  0.19684492  0.88335159  0.77928021    -0.09300
C706        C  0.17209966  0.85870490  0.76513731     0.29600
F707        F  0.19019631  0.83753079  0.74483868    -0.19800
H708        H  0.11057733  0.83612658  0.76031343     0.18000
H709        H  0.19458034  0.92478084  0.81020294     0.18000
F710        F  0.11373056  0.92372975  0.82570932    -0.19800
C711        C  0.47139656  0.70735637  0.65341346    -0.21200
C712        C  0.48233190  0.68115029  0.67308652    -0.09200
C713        C  0.48192763  0.68603575  0.70509268     0.29600
C714        C  0.47050875  0.71666133  0.71709248    -0.21200
C715        C  0.46082475  0.74296435  0.69733134    -0.09300
C716        C  0.46126836  0.73816319  0.66539212     0.29600
F717        F  0.45124580  0.76310518  0.64582972    -0.19800
H718        H  0.47205118  0.70430082  0.62865909     0.18000
H719        H  0.47000934  0.72007640  0.74180337     0.18000
F720        F  0.49237756  0.66122582  0.72468268    -0.19800
C721        C  0.49312324  0.25345685  0.76598635    -0.21200
C722        C  0.53620910  0.24399368  0.77018325    -0.09200
C723        C  0.56463315  0.26600619  0.78473990     0.29600
C724        C  0.54996709  0.29652742  0.79510495    -0.21200
C725        C  0.50678494  0.30594171  0.79116308    -0.09300
C726        C  0.47846655  0.28405224  0.77618727     0.29600
F727        F  0.43617697  0.29145796  0.77235847    -0.19800
H728        H  0.47058269  0.23712185  0.75475191     0.18000
H729        H  0.57242289  0.31265534  0.80670252     0.18000
F730        F  0.60621389  0.25761962  0.79025420    -0.19800
C731        C  0.42950147  0.27869882  0.95199231    -0.21200
C732        C  0.45935018  0.25609806  0.96420529    -0.09200
C733        C  0.50265449  0.26561053  0.96707097     0.29600
C734        C  0.51599502  0.29637686  0.95657905    -0.21200
C735        C  0.48665326  0.31822684  0.94270830    -0.09300
C736        C  0.44298923  0.30938450  0.94112835     0.29600
F737        F  0.41353527  0.33002889  0.92839122    -0.19800
H738        H  0.39589329  0.27217750  0.94962458     0.18000
H739        H  0.54986283  0.30236546  0.95806531     0.18000
F740        F  0.53236890  0.24519778  0.97976424    -0.19800
C741        C  0.17959121  0.08609529  0.55960634    -0.21200
C742        C  0.19593204  0.10028817  0.53255011    -0.09200
C743        C  0.16793440  0.11721019  0.51275511     0.29600
C744        C  0.12484707  0.12103143  0.52039439    -0.21200
C745        C  0.10836502  0.10871251  0.54832223    -0.09300
C746        C  0.13613654  0.09050105  0.56769468     0.29600
F747        F  0.12191640  0.07786103  0.59474662    -0.19800
H748        H  0.20091787  0.07308030  0.57518672     0.18000
H749        H  0.10477349  0.13481476  0.50456223     0.18000
F750        F  0.18245773  0.13074456  0.48611505    -0.19800
C751        C  0.67743065  0.37125867  0.94859039    -0.21200
C752        C  0.70156988  0.39131621  0.92894264    -0.09200
C753        C  0.68048196  0.40928036  0.90576809     0.29600
C754        C  0.63598619  0.40551023  0.90125428    -0.21200
C755        C  0.61185541  0.38428797  0.92021224    -0.09300
C756        C  0.63317696  0.36797941  0.94467425     0.29600
F757        F  0.61198389  0.34773565  0.96434825    -0.19800
H758        H  0.69308960  0.35758189  0.96689927     0.18000
H759        H  0.62060715  0.41867464  0.88253145     0.18000
F760        F  0.70321983  0.42893832  0.88647332    -0.19800
C761        C  0.01846129  0.20081859  0.51599075    -0.21200
C762        C  0.98761119  0.17966940  0.52901889    -0.09200
C763        C  0.94418910  0.18930004  0.52911465     0.29600
C764        C  0.93219298  0.21985994  0.51697408    -0.21200
C765        C  0.96338825  0.24156912  0.00524464    -0.09300
C766        C  0.00662613  0.23161529  0.00454585     0.29600
F767        F  0.03750255  0.25152796  0.99271310    -0.19800
H768        H  0.05221257  0.19416983  0.01573769     0.18000
H769        H  0.89862664  0.22700680  0.51765911     0.18000
F770        F  0.91350285  0.16934938  0.54116734    -0.19800
C771        C  0.82480492  0.11898278  0.69923216    -0.21200
C772        C  0.79887317  0.10200911  0.67817621    -0.09200
C773        C  0.81824861  0.08854767  0.65181505     0.29600
C774        C  0.86232395  0.09389947  0.64599760    -0.21200
C775        C  0.88785940  0.11237166  0.66654717    -0.09300
C776        C  0.86850126  0.12391047  0.69382470     0.29600
F777        F  0.89125798  0.14074258  0.71529893    -0.19800
H778        H  0.81100217  0.12896337  0.72008596     0.18000
H779        H  0.87611502  0.08434704  0.62497837     0.18000
F780        F  0.79430707  0.07181888  0.63094744    -0.19800
C781        C  0.31932967  0.41108445  0.81478964    -0.21200
C782        C  0.29984328  0.39431369  0.79023516    -0.09200
C783        C  0.32518643  0.37356286  0.77194674     0.29600
C784        C  0.36836823  0.36831837  0.77897106    -0.21200
C785        C  0.38775976  0.38323595  0.80466619    -0.09300
C786        C  0.36294549  0.40554038  0.82213511     0.29600
F787        F  0.38018062  0.42125033  0.84673547    -0.19800
H788        H  0.30031927  0.42725188  0.82911853     0.18000
H789        H  0.38625176  0.35159954  0.76447959     0.18000
F790        F  0.30800509  0.35782193  0.74730960    -0.19800
C791        C  0.98297995  0.20319352  0.70425213    -0.21200
C792        C  0.01079321  0.18438549  0.68575648    -0.09200
C793        C  0.05309443  0.19582500  0.68093299     0.29600
C794        C  0.06655015  0.22563763  0.69375198    -0.21200
C795        C  0.03792737  0.24499690  0.71089371    -0.09300
C796        C  0.99614340  0.23331401  0.71637027     0.29600
F797        F  0.96797634  0.25097348  0.73351432    -0.19800
H798        H  0.95027401  0.19524594  0.70851681     0.18000
H799        H  0.09895372  0.23420034  0.68928844     0.18000
F800        F  0.08128360  0.17864227  0.66339186    -0.19800
loop_ 
_geom_bond_atom_site_label_1 
_geom_bond_atom_site_label_2 
_geom_bond_distance 
_geom_bond_site_symmetry_2 
_ccdc_geom_bond_type 
N1            N2   1.326       .  A
N1            C5   1.349       .  A
N1           Cu9   2.103       .  S
N2            C3   1.344       .  A
N2           Cu8   2.074       .  S
C3            C4   1.379       .  A
C3            H6   1.082   1_455  S
C4            C5   1.387       .  A
C4          C214   1.475   1_455  S
C5            H7   1.082       .  S
Cu8          N11   2.073       .  S
Cu9          N19   2.101       .  S
Cu10         N12   2.057       .  S
Cu10         N18   2.057       .  S
N11          N12   1.318       .  A
N11          C15   1.345       .  A
N12          C13   1.344       .  A
C13          C14   1.383       .  A
C13          H16   1.082       .  S
C14          C15   1.388       .  A
C14         C395   1.478       .  S
C15          H17   1.082   1_455  S
N18          N19   1.322       .  A
N18          C22   1.337       .  A
N19          C20   1.355       .  A
C20          C21   1.392       .  A
C20          H23   1.082       .  S
C21          C22   1.378       .  A
C21         C382   1.481       .  S
C22          H24   1.082       .  S
C25          N26   1.359       .  A
C25          N30   1.363       .  A
C25         C375   1.497       .  S
N26          C27   1.356       .  A
C27          N28   1.357   1_655  A
C27         C392   1.488   1_655  S
N28          C29   1.358   1_455  A
C29          N30   1.364       .  A
C29          C59   1.464   1_655  S
N31          N32   1.325       .  A
N31          C35   1.346       .  A
N31         Cu39   2.083       .  S
N32          C33   1.347       .  A
N32         Cu38   2.089       .  S
C33          C34   1.385       .  A
C33          H36   1.082   1_655  S
C34          C35   1.383       .  A
C34         C584   1.476   1_655  S
C35          H37   1.082       .  S
Cu38         N41   2.088       .  S
Cu39         N49   2.081       .  S
Cu40         N42   2.048       .  S
Cu40         N48   2.050       .  S
N41          N42   1.320       .  A
N41          C45   1.347       .  A
N42          C43   1.342       .  A
C43          C44   1.380       .  A
C43          H46   1.082       .  S
C44          C45   1.389       .  A
C44         C365   1.477       .  S
C45          H47   1.082   1_655  S
N48          N49   1.321       .  A
N48          C52   1.338       .  A
N49          C50   1.349       .  A
C50          C51   1.387       .  A
C50          H53   1.082       .  S
C51          C52   1.379       .  A
C51         C352   1.473       .  S
C52          H54   1.082       .  S
C55          N56   1.356       .  A
C55          N60   1.364       .  A
C55         C345   1.491       .  S
N56          C57   1.351       .  A
C57          N58   1.355   1_455  A
C57         C362   1.477   1_455  S
N58          C59   1.358   1_655  A
C59          N60   1.366       .  A
N61          N62   1.325       .  A
N61          C65   1.346       .  A
N61         Cu69   2.087   1_556  S
N62         C463   1.348       .  A
N62        Cu468   2.087       .  S
C63         N462   1.348       .  A
C63         C464   1.385       .  A
C63          H66   1.082       .  S
C64          C65   1.383       .  A
C64         C463   1.385       .  A
C64         C554   1.477   1_545  S
C65          H67   1.082   1_545  S
Cu68         N71   2.085       .  S
Cu68        N462   2.087       .  S
Cu69         N79   2.085       .  S
Cu70         N72   2.048       .  S
Cu70         N78   2.048   1_556  S
N71         N472   1.319       .  A
N71          C75   1.345       .  A
N72         N471   1.319       .  A
N72         C473   1.342       .  A
C73         N472   1.342       .  A
C73          C74   1.383       .  A
C73          H76   1.082       .  S
C74          C75   1.391       .  A
C74         C332   1.482       .  S
C75          H77   1.081       .  S
N78          N79   1.321       .  A
N78          C82   1.337       .  A
N79          C80   1.351       .  A
C80          C81   1.388       .  A
C80          H83   1.082       .  S
C81          C82   1.378       .  A
C81         C342   1.474       .  S
C82          H84   1.082       .  S
C85          N86   1.365       .  A
C85          N90   1.356       .  A
C85         C355   1.490       .  S
N86          C87   1.365       .  A
C87          N88   1.357       .  A
C87         C117   1.465       .  S
N88          C89   1.355       .  A
C89          N90   1.353       .  A
C89         C335   1.479       .  S
N91          N92   1.322       .  A
N91          C95   1.356       .  A
N91         Cu99   2.109       .  S
N92          C93   1.339       .  A
N92         Cu98   2.062       .  S
C93          C94   1.381       .  A
C93          H96   1.082       .  S
C94          C95   1.394       .  A
C94         C372   1.487       .  S
C95          H97   1.082       .  S
Cu98        N101   2.061       .  S
Cu99        N109   2.112       .  S
Cu100       N102   2.078       .  S
Cu100       N108   2.080       .  S
N101        N102   1.319       .  A
N101        C105   1.343       .  A
N102        C103   1.347       .  A
C103        C104   1.390       .  A
C103        H106   1.082       .  S
C104        C105   1.385       .  A
C104        C322   1.485       .  S
C105        H107   1.081       .  S
N108        N109   1.327       .  A
N108        C112   1.346       .  A
N109        C110   1.350       .  A
C110        C111   1.389       .  A
C110        H113   1.082   1_545  S
C111        C112   1.381       .  A
C111        C141   1.480   1_545  S
C112        H114   1.082       .  S
C115        N116   1.363       .  A
C115        N120   1.359       .  A
C115        C385   1.495       .  S
N116        C117   1.365       .  A
C117        N118   1.358       .  A
N118        C119   1.357       .  A
C119        N120   1.355       .  A
C119        C325   1.487       .  S
N121        N122   1.323       .  A
N121        C125   1.353       .  A
N121       Cu129   2.109       .  S
N122        C123   1.342       .  A
N122       Cu128   2.064       .  S
C123        C124   1.382       .  A
C123        H126   1.082       .  S
C124        C125   1.392       .  A
C124        C305   1.488       .  S
C125        H127   1.082       .  S
Cu128       N131   2.062       .  S
Cu129       N139   2.109       .  S
Cu130       N132   2.072       .  S
Cu130       N138   2.073       .  S
N131        N132   1.321       .  A
N131        C135   1.343       .  A
N132        C133   1.346       .  A
C133        C134   1.384       .  A
C133        H136   1.082       .  S
C134        C135   1.379       .  A
C134        C315   1.468       .  S
C135        H137   1.082       .  S
N138        N139   1.325       .  A
N138        C142   1.346       .  A
N139        C140   1.350       .  A
C140        C141   1.390       .  A
C140        H143   1.082       .  S
C141        C142   1.381       .  A
C142        H144   1.082       .  S
C145        N146   1.359       .  A
C145        N150   1.368       .  A
C145        C292   1.496       .  S
N146        C147   1.352       .  A
C147        N148   1.351       .  A
C147        C312   1.473       .  S
N148        C149   1.354       .  A
C149        N150   1.367       .  A
C149        C179   1.463       .  S
N151        N152   1.325       .  A
N151        C155   1.348       .  A
N151       Cu159   2.093       .  S
N152        C153   1.346       .  A
N152       Cu158   2.085       .  S
C153        C154   1.383       .  A
C153        H156   1.082       .  S
C154        C155   1.385       .  A
C154        C464   1.477   1_565  S
C155        H157   1.082   1_565  S
Cu158       N161   2.083       .  S
Cu159       N169   2.092       .  S
Cu160       N162   2.054       .  S
Cu160       N168   2.055       .  S
N161        N162   1.320       .  A
N161        C165   1.347       .  A
N162        C163   1.342       .  A
C163        C164   1.382       .  A
C163        H166   1.082       .  S
C164        C165   1.389       .  A
C164        C285   1.480       .  S
C165        H167   1.082       .  S
N168        N169   1.321       .  A
N168        C172   1.338       .  A
N169        C170   1.353       .  A
C170        C171   1.390       .  A
C170        H173   1.082       .  S
C171        C172   1.380       .  A
C171        C272   1.478       .  S
C172        H174   1.082       .  S
C175        N176   1.358       .  A
C175        N180   1.363       .  A
C175        C262   1.495       .  S
N176        C177   1.354       .  A
C177        N178   1.358       .  A
C177        C282   1.487       .  S
N178        C179   1.359       .  A
C179        N180   1.365       .  A
N181        N182   1.326       .  A
N181        C185   1.347       .  A
N181       Cu189   2.093   1_556  S
N182        C583   1.346   1_455  A
N182       Cu588   2.088       .  S
C183        N582   1.346   1_655  A
C183        C584   1.383   1_655  A
C183        H186   1.082       .  S
C184        C185   1.384       .  A
C184        C583   1.383   1_455  A
C184        C434   1.476   1_455  S
C185        H187   1.082   1_556  S
Cu188       N191   2.086       .  S
Cu188       N582   2.088       .  S
Cu189       N199   2.092       .  S
Cu190       N198   2.064   1_556  S
Cu190       N592   2.064       .  S
N191        N192   1.320       .  A
N191        C195   1.348       .  A
N192        C193   1.343       .  A
N192       Cu590   2.064       .  S
C193        C194   1.384       .  A
C193        H196   1.082       .  S
C194        C195   1.391       .  A
C194        C255   1.485       .  S
C195        H197   1.082   1_455  S
N198        N199   1.321       .  A
N198        C202   1.339       .  A
N199        C200   1.353       .  A
C200        C201   1.391       .  A
C200        H203   1.082       .  S
C201        C202   1.382       .  A
C201        C265   1.483       .  S
C202        H204   1.082       .  S
C205        N206   1.364       .  A
C205        N210   1.358       .  A
C205        C275   1.494       .  S
N206        C207   1.366       .  A
C207        N208   1.359   1_655  A
C207        C239   1.466   1_655  S
N208        C209   1.356   1_455  A
C209        N210   1.353       .  A
C209        C252   1.485   1_655  S
N211        N212   1.325       .  A
N211        C215   1.348       .  A
N211       Cu219   2.098       .  S
N212        C213   1.345       .  A
N212       Cu218   2.072       .  S
C213        C214   1.380       .  A
C213        H216   1.082   1_655  S
C214        C215   1.387       .  A
C215        H217   1.082       .  S
Cu218       N221   2.071       .  S
Cu219       N229   2.097       .  S
Cu220       N222   2.069       .  S
Cu220       N228   2.069       .  S
N221        N222   1.319       .  A
N221        C225   1.345       .  A
N222        C223   1.345       .  A
C223        C224   1.387       .  A
C223        H226   1.082       .  S
C224        C225   1.389       .  A
C224        C245   1.486       .  S
C225        H227   1.081       .  S
N228        N229   1.323       .  A
N228        C232   1.339       .  A
N229        C230   1.354       .  A
C230        C231   1.390       .  A
C230        H233   1.082       .  S
C231        C232   1.380       .  A
C231        C295   1.481       .  S
C232        H234   1.082       .  S
C235        N236   1.360       .  A
C235        N240   1.365       .  A
C235        C302   1.496       .  S
N236        C237   1.358   1_455  A
C237        N238   1.355       .  A
C237        C242   1.488       .  S
N238        C239   1.356   1_655  A
C239        N240   1.365       .  A
C241        C242   1.406   1_455  A
C241        C246   1.398   1_455  A
C241        H248   1.083       .  S
C242        C243   1.410       .  A
C243        C244   1.400       .  A
C243        F250   1.358       .  S
C244        C245   1.406       .  A
C244        H249   1.083       .  S
C245        C246   1.408       .  A
C246        F247   1.356   1_655  S
C251        C252   1.408   1_655  A
C251        C256   1.399       .  A
C251        H258   1.083       .  S
C252        C253   1.407       .  A
C253        C254   1.400       .  A
C253        F260   1.357       .  S
C254        C255   1.406       .  A
C254        H259   1.083       .  S
C255        C256   1.406   1_455  A
C256        F257   1.357       .  S
C261        C262   1.407       .  A
C261        C266   1.392       .  A
C261        H268   1.083   1_554  S
C262        C263   1.414       .  A
C263        C264   1.409       .  A
C263        F270   1.357       .  S
C264        C265   1.406       .  A
C264        H269   1.083       .  S
C265        C266   1.404       .  A
C266        F267   1.358   1_554  S
C271        C272   1.405       .  A
C271        C276   1.409       .  A
C271        H278   1.083       .  S
C272        C273   1.402       .  A
C273        C274   1.390       .  A
C273        F280   1.358       .  S
C274        C275   1.408       .  A
C274        H279   1.083       .  S
C275        C276   1.414       .  A
C276        F277   1.357       .  S
C281        C282   1.405       .  A
C281        C286   1.398       .  A
C281        H288   1.083       .  S
C282        C283   1.413       .  A
C283        C684   1.398   1_554  A
C283        F290   1.357       .  S
C284        C285   1.401       .  A
C284        C683   1.398       .  A
C284        H289   1.083       .  S
C285        C686   1.408       .  A
C286        C685   1.408       .  A
C286        F287   1.357       .  S
C291        C292   1.411       .  A
C291        C296   1.409       .  A
C291        H298   1.083       .  S
C292        C293   1.415       .  A
C293        C294   1.392       .  A
C293        F300   1.358       .  S
C294        C295   1.399       .  A
C294        H299   1.084       .  S
C295        C296   1.407       .  A
C296        F297   1.357       .  S
C301        C302   1.408       .  A
C301        C306   1.397       .  A
C301        H308   1.083       .  S
C302        C303   1.412       .  A
C303        C304   1.408       .  A
C303        F310   1.357       .  S
C304        C305   1.406       .  A
C304        H309   1.083       .  S
C305        C306   1.407       .  A
C306        F307   1.358       .  S
C311        C312   1.406       .  A
C311        C316   1.395       .  A
C311        H318   1.083       .  S
C312        C313   1.406       .  A
C313        C314   1.399       .  A
C313        F320   1.357       .  S
C314        C315   1.402       .  A
C314        H319   1.083       .  S
C315        C316   1.402       .  A
C316        F317   1.358       .  S
C321        C322   1.404       .  A
C321        C326   1.399       .  A
C321        H328   1.083       .  S
C322        C323   1.409       .  A
C323        C324   1.399       .  A
C323        F330   1.356       .  S
C324        C325   1.405       .  A
C324        H329   1.083       .  S
C325        C326   1.412       .  A
C326        F327   1.357       .  S
C331        C332   1.408       .  A
C331        C336   1.399       .  A
C331        H338   1.082       .  S
C332        C333   1.406       .  A
C333        C334   1.395       .  A
C333        F340   1.357       .  S
C334        C335   1.406       .  A
C334        H339   1.082       .  S
C335        C336   1.405       .  A
C336        F337   1.358       .  S
C341        C342   1.404       .  A
C341        C346   1.407       .  A
C341        H348   1.083       .  S
C342        C343   1.401       .  A
C343        C344   1.388       .  A
C343        F350   1.358   1_554  S
C344        C345   1.409       .  A
C344        H349   1.083       .  S
C345        C346   1.412       .  A
C346        F347   1.357       .  S
C351        C352   1.399       .  A
C351        C356   1.391       .  A
C351        H358   1.084       .  S
C352        C353   1.403       .  A
C353        C354   1.404       .  A
C353        F360   1.357       .  S
C354        C355   1.409       .  A
C354        H359   1.083       .  S
C355        C356   1.415       .  A
C356        F357   1.357       .  S
C361        C362   1.407   1_455  A
C361        C766   1.395       .  A
C361        H768   1.083       .  S
C362        C363   1.404       .  A
C363        C364   1.400       .  A
C363        F370   1.358       .  S
C364        C765   1.407       .  A
C364        H369   1.083       .  S
C365        C366   1.403   1_655  A
C365        C764   1.407       .  A
C366        C761   1.395       .  A
C366        F367   1.357       .  S
H368        C761   1.083       .  S
C371        C372   1.402       .  A
C371        C376   1.393       .  A
C371        H378   1.083       .  S
C372        C373   1.407       .  A
C373        C374   1.410       .  A
C373        F380   1.357       .  S
C374        C375   1.412       .  A
C374        H379   1.083       .  S
C375        C376   1.412       .  A
C376        F377   1.357       .  S
C381        C382   1.405       .  A
C381        C386   1.409       .  A
C381        H388   1.083       .  S
C382        C383   1.404       .  A
C383        C384   1.391       .  A
C383        F390   1.358       .  S
C384        C385   1.407       .  A
C384        H389   1.083       .  S
C385        C386   1.414       .  A
C386        F387   1.357       .  S
C391        C392   1.409   1_655  A
C391        C396   1.397       .  A
C391        H398   1.083       .  S
C392        C393   1.410       .  A
C393        C394   1.401       .  A
C393        F400   1.357       .  S
C394        C395   1.404       .  A
C394        H399   1.083       .  S
C395        C396   1.403   1_455  A
C396        F397   1.357       .  S
N401        N402   1.326       .  A
N401        C405   1.349       .  A
N401       Cu409   2.103       .  S
N402        C403   1.344       .  A
N402       Cu408   2.074       .  S
C403        C404   1.379       .  A
C403        H406   1.082   1_455  S
C404        C405   1.387       .  A
C404        C614   1.475   1_455  S
C405        H407   1.082       .  S
Cu408       N411   2.073       .  S
Cu409       N419   2.101       .  S
Cu410       N412   2.057       .  S
Cu410       N418   2.057       .  S
N411        N412   1.318       .  A
N411        C415   1.345       .  A
N412        C413   1.344       .  A
C413        C414   1.383       .  A
C413        H416   1.082       .  S
C414        C415   1.388       .  A
C414        C795   1.478       .  S
C415        H417   1.082   1_455  S
N418        N419   1.322       .  A
N418        C422   1.337       .  A
N419        C420   1.355       .  A
C420        C421   1.392       .  A
C420        H423   1.082       .  S
C421        C422   1.378       .  A
C421        C782   1.481       .  S
C422        H424   1.082       .  S
C425        N426   1.359       .  A
C425        N430   1.363       .  A
C425        C775   1.497       .  S
N426        C427   1.356       .  A
C427        N428   1.357   1_655  A
C427        C792   1.488   1_655  S
N428        C429   1.358   1_455  A
C429        N430   1.364       .  A
C429        C459   1.464   1_655  S
N431        N432   1.325       .  A
N431        C435   1.346       .  A
N431       Cu439   2.083       .  S
N432        C433   1.347       .  A
N432       Cu438   2.089       .  S
C433        C434   1.385       .  A
C433        H436   1.082   1_656  S
C434        C435   1.383       .  A
C435        H437   1.082       .  S
Cu438       N441   2.088       .  S
Cu439       N449   2.081       .  S
Cu440       N442   2.048       .  S
Cu440       N448   2.050       .  S
N441        N442   1.320       .  A
N441        C445   1.347       .  A
N442        C443   1.342       .  A
C443        C444   1.380       .  A
C443        H446   1.082       .  S
C444        C445   1.389       .  A
C444        C765   1.477   1_556  S
C445        H447   1.082   1_656  S
N448        N449   1.321       .  A
N448        C452   1.338       .  A
N449        C450   1.349       .  A
C450        C451   1.387       .  A
C450        H453   1.082       .  S
C451        C452   1.379       .  A
C451        C752   1.473       .  S
C452        H454   1.082       .  S
C455        N456   1.356       .  A
C455        N460   1.364       .  A
C455        C745   1.491       .  S
N456        C457   1.351       .  A
C457        N458   1.355   1_455  A
C457        C762   1.477   1_455  S
N458        C459   1.358   1_655  A
C459        N460   1.366       .  A
N461        N462   1.325       .  A
N461        C465   1.346       .  A
N461       Cu469   2.086       .  S
C463        H466   1.082       .  S
C464        C465   1.383       .  A
C465        H467   1.082   1_545  S
Cu468       N471   2.085       .  S
Cu469       N479   2.085       .  S
Cu470       N472   2.048       .  S
Cu470       N478   2.048       .  S
N471        C475   1.345       .  A
C473        C474   1.383       .  A
C473        H476   1.082       .  S
C474        C475   1.391       .  A
C474        C732   1.482       .  S
C475        H477   1.081       .  S
N478        N479   1.321       .  A
N478        C482   1.337       .  A
N479        C480   1.351       .  A
C480        C481   1.388       .  A
C480        H483   1.082       .  S
C481        C482   1.378       .  A
C481        C742   1.474       .  S
C482        H484   1.082       .  S
C485        N486   1.365       .  A
C485        N490   1.356       .  A
C485        C755   1.490       .  S
N486        C487   1.365       .  A
C487        N488   1.357       .  A
C487        C517   1.465       .  S
N488        C489   1.355       .  A
C489        N490   1.353       .  A
C489        C735   1.479       .  S
N491        N492   1.322       .  A
N491        C495   1.356       .  A
N491       Cu499   2.109       .  S
N492        C493   1.339       .  A
N492       Cu498   2.062       .  S
C493        C494   1.381       .  A
C493        H496   1.082       .  S
C494        C495   1.394       .  A
C494        C772   1.487       .  S
C495        H497   1.082       .  S
Cu498       N501   2.061       .  S
Cu499       N509   2.112       .  S
Cu500       N502   2.078       .  S
Cu500       N508   2.080       .  S
N501        N502   1.319       .  A
N501        C505   1.343       .  A
N502        C503   1.347       .  A
C503        C504   1.390       .  A
C503        H506   1.082       .  S
C504        C505   1.385       .  A
C504        C722   1.485       .  S
C505        H507   1.081       .  S
N508        N509   1.327       .  A
N508        C512   1.346       .  A
N509        C510   1.350       .  A
C510        C511   1.389       .  A
C510        H513   1.082   1_545  S
C511        C512   1.381       .  A
C511        C541   1.480   1_545  S
C512        H514   1.082       .  S
C515        N516   1.363       .  A
C515        N520   1.359       .  A
C515        C785   1.495       .  S
N516        C517   1.365       .  A
C517        N518   1.358       .  A
N518        C519   1.357       .  A
C519        N520   1.355       .  A
C519        C725   1.487       .  S
N521        N522   1.323       .  A
N521        C525   1.353       .  A
N521       Cu529   2.109       .  S
N522        C523   1.342       .  A
N522       Cu528   2.064       .  S
C523        C524   1.383       .  A
C523        H526   1.082       .  S
C524        C525   1.392       .  A
C524        C705   1.488       .  S
C525        H527   1.082       .  S
Cu528       N531   2.062       .  S
Cu529       N539   2.109       .  S
Cu530       N532   2.072       .  S
Cu530       N538   2.073       .  S
N531        N532   1.321       .  A
N531        C535   1.343       .  A
N532        C533   1.346       .  A
C533        C534   1.384       .  A
C533        H536   1.082       .  S
C534        C535   1.379       .  A
C534        C715   1.468       .  S
C535        H537   1.082       .  S
N538        N539   1.325       .  A
N538        C542   1.346       .  A
N539        C540   1.350       .  A
C540        C541   1.390       .  A
C540        H543   1.082       .  S
C541        C542   1.381       .  A
C542        H544   1.082       .  S
C545        N546   1.359       .  A
C545        N550   1.368       .  A
C545        C692   1.496       .  S
N546        C547   1.352       .  A
C547        N548   1.351       .  A
C547        C712   1.473       .  S
N548        C549   1.354       .  A
C549        N550   1.367       .  A
C549        C579   1.463       .  S
N551        N552   1.325       .  A
N551        C555   1.348       .  A
N551       Cu559   2.093       .  S
N552        C553   1.346       .  A
N552       Cu558   2.085       .  S
C553        C554   1.383       .  A
C553        H556   1.082       .  S
C554        C555   1.385       .  A
C555        H557   1.082   1_565  S
Cu558       N561   2.083       .  S
Cu559       N569   2.092       .  S
Cu560       N562   2.055       .  S
Cu560       N568   2.055       .  S
N561        N562   1.320       .  A
N561        C565   1.347       .  A
N562        C563   1.342       .  A
C563        C564   1.382       .  A
C563        H566   1.082       .  S
C564        C565   1.389       .  A
C564        C685   1.480   1_556  S
C565        H567   1.082       .  S
N568        N569   1.321       .  A
N568        C572   1.338       .  A
N569        C570   1.353       .  A
C570        C571   1.390       .  A
C570        H573   1.082       .  S
C571        C572   1.380       .  A
C571        C672   1.478       .  S
C572        H574   1.082       .  S
C575        N576   1.358       .  A
C575        N580   1.363       .  A
C575        C662   1.495       .  S
N576        C577   1.354       .  A
C577        N578   1.358       .  A
C577        C682   1.487       .  S
N578        C579   1.359       .  A
C579        N580   1.365       .  A
N581        N582   1.326       .  A
N581        C585   1.347       .  A
N581       Cu589   2.093       .  S
C583        H586   1.082       .  S
C584        C585   1.384       .  A
C585        H587   1.082       .  S
Cu588       N591   2.086       .  S
Cu589       N599   2.092       .  S
Cu590       N598   2.064       .  S
N591        N592   1.320       .  A
N591        C595   1.348       .  A
N592        C593   1.343       .  A
C593        C594   1.384       .  A
C593        H596   1.082       .  S
C594        C595   1.391       .  A
C594        C655   1.485       .  S
C595        H597   1.082   1_455  S
N598        N599   1.321       .  A
N598        C602   1.339       .  A
N599        C600   1.353       .  A
C600        C601   1.391       .  A
C600        H603   1.082       .  S
C601        C602   1.382       .  A
C601        C665   1.483       .  S
C602        H604   1.082       .  S
C605        N606   1.364       .  A
C605        N610   1.358       .  A
C605        C675   1.494       .  S
N606        C607   1.366       .  A
C607        N608   1.359   1_655  A
C607        C639   1.466   1_655  S
N608        C609   1.356   1_455  A
C609        N610   1.353       .  A
C609        C652   1.485   1_655  S
N611        N612   1.325       .  A
N611        C615   1.348       .  A
N611       Cu619   2.098       .  S
N612        C613   1.345       .  A
N612       Cu618   2.072       .  S
C613        C614   1.380       .  A
C613        H616   1.082   1_655  S
C614        C615   1.387       .  A
C615        H617   1.082       .  S
Cu618       N621   2.071       .  S
Cu619       N629   2.097       .  S
Cu620       N622   2.069       .  S
Cu620       N628   2.069       .  S
N621        N622   1.319       .  A
N621        C625   1.345       .  A
N622        C623   1.345       .  A
C623        C624   1.387       .  A
C623        H626   1.082       .  S
C624        C625   1.389       .  A
C624        C645   1.486       .  S
C625        H627   1.081       .  S
N628        N629   1.323       .  A
N628        C632   1.339       .  A
N629        C630   1.354       .  A
C630        C631   1.390       .  A
C630        H633   1.082       .  S
C631        C632   1.380       .  A
C631        C695   1.481       .  S
C632        H634   1.082       .  S
C635        N636   1.360       .  A
C635        N640   1.365       .  A
C635        C702   1.496       .  S
N636        C637   1.358   1_455  A
C637        N638   1.355       .  A
C637        C642   1.488       .  S
N638        C639   1.356   1_655  A
C639        N640   1.365       .  A
C641        C642   1.406   1_455  A
C641        C646   1.398   1_455  A
C641        H648   1.083       .  S
C642        C643   1.410       .  A
C643        C644   1.400       .  A
C643        F650   1.358       .  S
C644        C645   1.406       .  A
C644        H649   1.083       .  S
C645        C646   1.408       .  A
C646        F647   1.356   1_655  S
C651        C652   1.408   1_655  A
C651        C656   1.399       .  A
C651        H658   1.083       .  S
C652        C653   1.407       .  A
C653        C654   1.400       .  A
C653        F660   1.357       .  S
C654        C655   1.406       .  A
C654        H659   1.083       .  S
C655        C656   1.406   1_455  A
C656        F657   1.357       .  S
C661        C662   1.407       .  A
C661        C666   1.392       .  A
C661        H668   1.083       .  S
C662        C663   1.414       .  A
C663        C664   1.409       .  A
C663        F670   1.357       .  S
C664        C665   1.406       .  A
C664        H669   1.083       .  S
C665        C666   1.404       .  A
C666        F667   1.358       .  S
C671        C672   1.405       .  A
C671        C676   1.409       .  A
C671        H678   1.083       .  S
C672        C673   1.402       .  A
C673        C674   1.390       .  A
C673        F680   1.358       .  S
C674        C675   1.408       .  A
C674        H679   1.083       .  S
C675        C676   1.414       .  A
C676        F677   1.357       .  S
C681        C682   1.405       .  A
C681        C686   1.398       .  A
C681        H688   1.083       .  S
C682        C683   1.413       .  A
C683        F690   1.357       .  S
C684        C685   1.401   1_556  A
C684        H689   1.083       .  S
C686        F687   1.357       .  S
C691        C692   1.411       .  A
C691        C696   1.409       .  A
C691        H698   1.083       .  S
C692        C693   1.415       .  A
C693        C694   1.392       .  A
C693        F700   1.358       .  S
C694        C695   1.399       .  A
C694        H699   1.084       .  S
C695        C696   1.407       .  A
C696        F697   1.357       .  S
C701        C702   1.408       .  A
C701        C706   1.397       .  A
C701        H708   1.083       .  S
C702        C703   1.412       .  A
C703        C704   1.408       .  A
C703        F710   1.357       .  S
C704        C705   1.406       .  A
C704        H709   1.083       .  S
C705        C706   1.407       .  A
C706        F707   1.358       .  S
C711        C712   1.406       .  A
C711        C716   1.395       .  A
C711        H718   1.083       .  S
C712        C713   1.406       .  A
C713        C714   1.399       .  A
C713        F720   1.357       .  S
C714        C715   1.402       .  A
C714        H719   1.083       .  S
C715        C716   1.402       .  A
C716        F717   1.358       .  S
C721        C722   1.404       .  A
C721        C726   1.399       .  A
C721        H728   1.083       .  S
C722        C723   1.409       .  A
C723        C724   1.399       .  A
C723        F730   1.356       .  S
C724        C725   1.405       .  A
C724        H729   1.083       .  S
C725        C726   1.412       .  A
C726        F727   1.357       .  S
C731        C732   1.408       .  A
C731        C736   1.399       .  A
C731        H738   1.082       .  S
C732        C733   1.406       .  A
C733        C734   1.395       .  A
C733        F740   1.357       .  S
C734        C735   1.406       .  A
C734        H739   1.082       .  S
C735        C736   1.405       .  A
C736        F737   1.358       .  S
C741        C742   1.404       .  A
C741        C746   1.407       .  A
C741        H748   1.083       .  S
C742        C743   1.401       .  A
C743        C744   1.388       .  A
C743        F750   1.358       .  S
C744        C745   1.409       .  A
C744        H749   1.083       .  S
C745        C746   1.412       .  A
C746        F747   1.357       .  S
C751        C752   1.399       .  A
C751        C756   1.391       .  A
C751        H758   1.084       .  S
C752        C753   1.403       .  A
C753        C754   1.404       .  A
C753        F760   1.357       .  S
C754        C755   1.409       .  A
C754        H759   1.083       .  S
C755        C756   1.415       .  A
C756        F757   1.357       .  S
C761        C762   1.407   1_455  A
C762        C763   1.404       .  A
C763        C764   1.400       .  A
C763        F770   1.358       .  S
C764        H769   1.083       .  S
C765        C766   1.403   1_655  A
C766        F767   1.357   1_554  S
C771        C772   1.402       .  A
C771        C776   1.393       .  A
C771        H778   1.083       .  S
C772        C773   1.407       .  A
C773        C774   1.410       .  A
C773        F780   1.357       .  S
C774        C775   1.412       .  A
C774        H779   1.083       .  S
C775        C776   1.412       .  A
C776        F777   1.357       .  S
C781        C782   1.405       .  A
C781        C786   1.409       .  A
C781        H788   1.083       .  S
C782        C783   1.404       .  A
C783        C784   1.391       .  A
C783        F790   1.358       .  S
C784        C785   1.407       .  A
C784        H789   1.083       .  S
C785        C786   1.414       .  A
C786        F787   1.357       .  S
C791        C792   1.409   1_655  A
C791        C796   1.397       .  A
C791        H798   1.083       .  S
C792        C793   1.410       .  A
C793        C794   1.401       .  A
C793        F800   1.357       .  S
C794        C795   1.404       .  A
C794        H799   1.083       .  S
C795        C796   1.403   1_455  A
C796        F797   1.357       .  S
