geometry optimzed in LAMMPS
_audit_creation_date              2020-11-30 
_audit_creation_method            'lammps2cif' 
_symmetry_space_group_name_H-M    'P1' 
_symmetry_Int_Tables_number       1 
_symmetry_cell_setting            triclinic 
loop_ 
_symmetry_equiv_pos_as_xyz 
  x,y,z 
_cell_length_a                    34.84945687 
_cell_length_b                    25.825278179438637 
_cell_length_c                    48.33273205423149 
_cell_angle_alpha                 90.28026224659774 
_cell_angle_beta                  89.88919185382704 
_cell_angle_gamma                 90.25557738378367 
loop_ 
_atom_site_label 
_atom_site_type_symbol 
_atom_site_fract_x 
_atom_site_fract_y 
_atom_site_fract_z 
_atom_site_charge 
C1          C  0.04281905  0.00505460  0.14069313     0.30700
C2          C  0.46371171  0.50494820  0.14085521     0.30700
C3          C  0.02327156  0.49468580  0.16847754    -0.05500
C4          C  0.02372678  0.05677067  0.13176970    -0.06300
C5          C  0.02303665  0.46629033  0.12083592    -0.06200
C6          C  0.48350016  0.49446317  0.16858096    -0.05500
C7          C  0.48299799  0.05641267  0.13164554    -0.06300
C8          C  0.48301416  0.46660726  0.12074619    -0.08000
C9          C  0.47194826  0.49393058  0.19587247    -0.31600
N10         N  0.50363174  0.99354912  0.21223168     0.14900
C11         C  0.03513650  0.99471177  0.19566230    -0.31600
H12         H  0.06444958  0.99788704  0.20286932     0.16900
C13         C  0.47213641  0.09157124  0.11156319    -0.30600
N14         N  0.00355510  0.11562586  0.10125099     0.13600
C15         C  0.03496569  0.09347397  0.11241790    -0.30600
C16         C  0.47113556  0.43073301  0.10126205    -0.30900
N17         N  0.50262345  0.40739682  0.09047011     0.14100
H18         H  0.44183266  0.42124975  0.09582061     0.16800
C19         C  0.03439432  0.42925002  0.10188052    -0.30900
H20         H  0.06355731  0.41893542  0.09660244     0.16800
H21         H  0.06372249  0.09940198  0.10453858     0.16800
H22         H  0.44273271  0.49721349  0.20329788     0.16800
H23         H  0.44354632  0.09624177  0.10327011     0.16800
C24         C  0.29267954  0.99800060  0.14074000     0.30700
C25         C  0.21360384  0.49762740  0.13986050     0.30700
C26         C  0.27242225  0.50837811  0.16837793    -0.05500
C27         C  0.27352023  0.03730062  0.12116046    -0.06300
C28         C  0.27349787  0.44637605  0.13107013    -0.06200
C29         C  0.23263783  0.50816920  0.16785844    -0.05500
C30         C  0.23346853  0.03650797  0.12058239    -0.06300
C31         C  0.23285224  0.44651980  0.13045594    -0.06200
C32         C  0.22009017  0.51215357  0.19478786    -0.31600
N33         N  0.25115666  0.01456759  0.21169866     0.14900
C34         C  0.28329393  0.01247460  0.19573376    -0.31600
H35         H  0.31236132  0.01129101  0.20355351     0.16900
C36         C  0.22193617  0.07185420  0.10112684    -0.30600
N37         N  0.25352275  0.09578023  0.09092377     0.13600
C38         C  0.28517723  0.07459620  0.10251733    -0.30600
C39         C  0.22213610  0.41123599  0.11015109    -0.30900
N40         N  0.25367247  0.38744343  0.09996949     0.14100
H41         H  0.19356667  0.40603287  0.10182374     0.16800
C42         C  0.28497622  0.40964369  0.11168870    -0.30900
H43         H  0.31396997  0.40341065  0.10439123     0.16800
H44         H  0.31438939  0.08535421  0.09745146     0.16800
H45         H  0.19048149  0.51190808  0.20157948     0.16800
H46         H  0.19274063  0.08050860  0.09518513     0.16800
C47         C  0.46269539  0.49728330  0.40161151     0.30700
C48         C  0.04195926  0.99704273  0.40221214     0.30700
C49         C  0.48295112  0.50479329  0.37360170    -0.05500
C50         C  0.48195558  0.03825563  0.42024979    -0.06300
C51         C  0.48173067  0.44759304  0.41254053    -0.06200
C52         C  0.02297553  0.50528166  0.37376038    -0.05500
C53         C  0.02203769  0.04003092  0.41944604    -0.06300
C54         C  0.02199757  0.44714395  0.41222486    -0.06200
C55         C  0.03458624  0.00990875  0.34651941    -0.31600
N56         N  0.50300013  0.01057940  0.33006277     0.14900
C57         C  0.47136391  0.50744511  0.34644090    -0.31600
H58         H  0.44208542  0.50548676  0.33905468     0.16900
C59         C  0.03290604  0.08242220  0.43516606    -0.30600
N60         N  0.00133421  0.10242034  0.44757080     0.13600
C61         C  0.47006136  0.07555982  0.43885677    -0.30600
C62         C  0.03363736  0.40786687  0.42946615    -0.30900
N63         N  0.50219181  0.38628615  0.44124746     0.14100
H64         H  0.06288552  0.39934028  0.43533623     0.16800
C65         C  0.47070161  0.41140099  0.43202921    -0.30900
H66         H  0.44211036  0.40608534  0.44035865     0.16800
H67         H  0.44091610  0.08288682  0.44549858     0.16800
H68         H  0.06379072  0.01029523  0.33893708     0.16800
H69         H  0.06170796  0.09726781  0.43801352     0.16800
C70         C  0.21268252  0.49447676  0.40147302     0.30700
C71         C  0.29188808  0.99466834  0.40074175     0.30700
C72         C  0.23206394  0.50173637  0.37304577    -0.05500
C73         C  0.23255196  0.03848678  0.41808511    -0.06300
C74         C  0.23205764  0.44612410  0.41327430    -0.06200
C75         C  0.27200618  0.50068733  0.37268812    -0.05500
C76         C  0.27280897  0.03832785  0.41791257    -0.06300
C77         C  0.27231343  0.44615956  0.41305211    -0.06200
C78         C  0.28361378  0.00808281  0.34571692    -0.31600
N79         N  0.25189218  0.01434405  0.32979078     0.14900
C80         C  0.22045149  0.51167018  0.34636224    -0.31600
H81         H  0.19129207  0.51686058  0.33934840     0.16900
C82         C  0.28474666  0.07921728  0.43440038    -0.30600
N83         N  0.25325087  0.10420776  0.44406840     0.13600
C84         C  0.22145447  0.08019819  0.43411010    -0.30600
C85         C  0.28349709  0.41201175  0.43342826    -0.30900
N86         N  0.25198824  0.39035203  0.44505025     0.14100
H87         H  0.31245418  0.40621175  0.44081871     0.16800
C88         C  0.22050499  0.41209526  0.43370939    -0.30900
H89         H  0.19140033  0.40579835  0.44084340     0.16800
H90         H  0.19247686  0.09268346  0.43843869     0.16800
H91         H  0.31287362  0.00780037  0.33817316     0.16800
H92         H  0.31397196  0.08893544  0.43995731     0.16800
O93         O  0.47971998  0.35353085  0.48321010    -0.77800
C94         C  0.39866291  0.25024198  0.02156291     0.83200
O95         O  0.02495935  0.32631713  0.07644312    -0.79000
O96         O  0.48189525  0.14532830  0.05850380    -0.80400
O97         O  0.02503255  0.18091075  0.46466539    -0.80200
O98         O  0.02633088  0.31123341  0.46133179    -0.78900
Zn99       Zn  0.47079259  0.31456584  0.01885827     1.55700
O100        O  0.47889295  0.14074394  0.48831566    -0.80300
Cd101      Cd  0.03451628  0.24843712  0.48704700     1.59700
Cd102      Cd  0.03378932  0.25700920  0.05549262     1.59600
O103        O  0.09049675  0.24884693  0.49838322    -0.80300
O104        O  0.50227655  0.25280137  0.02110884    -1.90800
Cd105      Cd  0.47155654  0.18754278  0.02292454     1.59900
O106        O  0.09018459  0.25688919  0.04456106    -0.80200
O107        O  0.41547147  0.20702111  0.02376986    -0.78900
C108        C  0.50243723  0.36405113  0.07182112     0.83700
C109        C  0.50271749  0.34861710  0.46286004     0.83300
O110        O  0.41617283  0.29323468  0.01929507    -0.77800
C111        C  0.00161305  0.14333568  0.46768144     0.84100
O112        O  0.47979274  0.36403265  0.05113631    -0.77900
C113        C  0.10745819  0.25289760  0.02150753     0.84300
C114        C  0.00358083  0.15297416  0.07933573     0.84600
O115        O  0.02487609  0.19320672  0.08135765    -0.80300
O116        O  0.16713057  0.29351163  0.02294290    -0.77800
C117        C  0.25402258  0.34902213  0.07834512     0.83200
O118        O  0.27489474  0.31317140  0.46311336    -0.79000
O119        O  0.34030178  0.24766802  0.04443208    -0.80400
O120        O  0.22905242  0.13723218  0.05218772    -0.80200
O121        O  0.16414763  0.20711512  0.01974149    -0.78900
Zn122      Zn  0.22241407  0.31278197  0.02203711     1.55700
O123        O  0.27609002  0.17596920  0.07574595    -0.80300
Cd124      Cd  0.21981240  0.18583986  0.01917182     1.59700
Cd125      Cd  0.28478368  0.24835639  0.48683177     1.59600
O126        O  0.22823701  0.14281544  0.48368796    -0.80300
O127        O  0.25235673  0.24928619  0.02085243    -1.90800
Cd128      Cd  0.28403939  0.24555668  0.05513171     1.59900
O129        O  0.27750283  0.18153998  0.46286115    -0.80200
O130        O  0.27490956  0.30893986  0.08114326    -0.78900
C131        C  0.25253311  0.35166630  0.46617275     0.83700
C132        C  0.14847138  0.25120481  0.02153613     0.83300
O133        O  0.23313120  0.35539792  0.05696765    -0.77800
C134        C  0.25302027  0.13814361  0.07201609     0.84100
O135        O  0.23085354  0.35636277  0.48734962    -0.77900
C136        C  0.25298161  0.14487022  0.46433909     0.84300
C137        C  0.35766334  0.25009016  0.02138963     0.84600
O138        O  0.34080885  0.25117534  0.49815508    -0.80300
C139        C  0.39821657  0.45072517  0.39703677    -0.25700
C140        C  0.41839949  0.49796131  0.39931725    -0.13700
C141        C  0.39657124  0.04408797  0.39574880     0.36900
C142        C  0.35622837  0.04176197  0.39665242    -0.25100
C143        C  0.33616901  0.49458565  0.39887584    -0.14400
C144        C  0.35785072  0.44862796  0.39549258     0.38000
N145        N  0.33923140  0.40032422  0.38896498    -0.88600
H146        H  0.41397482  0.41497947  0.39490531     0.19100
H147        H  0.34037651  0.07743593  0.39442456     0.19100
N148        N  0.41353713  0.09341955  0.38927638    -0.87600
H149        H  0.35922329  0.37045919  0.38693891     0.36500
H150        H  0.32615856  0.40439459  0.36965557     0.41600
H151        H  0.44287327  0.09119076  0.38544361     0.41200
H152        H  0.40894096  0.11854740  0.40595583     0.36100
C153        C  0.14842648  0.00637936  0.42586832    -0.25700
C154        C  0.16835666  0.49075414  0.40193732    -0.13700
C155        C  0.14623784  0.46359438  0.38167400     0.36900
C156        C  0.10600755  0.46780347  0.38193692    -0.25100
C157        C  0.08626327  0.49371772  0.40328589    -0.14400
C158        C  0.10803389  0.00578411  0.42732906     0.38000
N159        N  0.08969566  0.01366861  0.45366852    -0.88600
H160        H  0.16438084  0.01547885  0.44439954     0.19100
H161        H  0.08995406  0.44720287  0.36619999     0.19100
N162        N  0.16244594  0.42660239  0.36269134    -0.87600
H163        H  0.10979232  0.02260599  0.46901466     0.36500
H164        H  0.07669954  0.97889962  0.45949620     0.41600
H165        H  0.19144168  0.41981842  0.36625912     0.41200
H166        H  0.15867435  0.43981959  0.34248817     0.36100
C167        C  0.27536948  0.04863270  0.25606906    -0.25700
C168        C  0.25038935  0.01550445  0.24151652    -0.13700
C169        C  0.22551574  0.48272346  0.25650802     0.36900
C170        C  0.22580800  0.48387903  0.28550878    -0.25100
C171        C  0.25104516  0.01652025  0.30004475    -0.14400
C172        C  0.27577102  0.04949464  0.28516117     0.38000
N173        N  0.30068052  0.08460923  0.29954356    -0.88600
H174        H  0.29440516  0.07420513  0.24475657     0.19100
H175        H  0.20705513  0.45787535  0.29679254     0.19100
N176        N  0.20108598  0.44658660  0.24239733    -0.87600
H177        H  0.32887071  0.07668452  0.29350653     0.36500
H178        H  0.29413874  0.12222257  0.29322614     0.41600
H179        H  0.20804687  0.40930936  0.24903927     0.41200
H180        H  0.17276579  0.45406749  0.24828555     0.36100
C181        C  0.39780755  0.04814961  0.14431130    -0.25700
C182        C  0.41938247  0.50217568  0.14292426    -0.13700
C183        C  0.39873438  0.45470113  0.14625560     0.36900
C184        C  0.35839834  0.45446297  0.14513489    -0.25100
C185        C  0.33697037  0.50023981  0.14275745    -0.14400
C186        C  0.35731441  0.04774400  0.14526044     0.38000
N187        N  0.33702263  0.09557070  0.14926222    -0.88600
H188        H  0.41245591  0.08496113  0.14603306     0.19100
H189        H  0.34377445  0.41776384  0.14760124     0.19100
N190        N  0.41691006  0.40616310  0.15234615    -0.87600
H191        H  0.35603924  0.12698596  0.14989749     0.36500
H192        H  0.32373866  0.09417110  0.16862824     0.41600
H193        H  0.44629681  0.40958034  0.15559726     0.41200
H194        H  0.41246193  0.38101644  0.13563982     0.36100
C195        C  0.14768591  0.45412359  0.14370299    -0.25700
C196        C  0.16938537  0.49989567  0.14131992    -0.13700
C197        C  0.14947996  0.04748170  0.14405459     0.36900
C198        C  0.10902909  0.04796387  0.14369454    -0.25100
C199        C  0.08710366  0.50207561  0.14241503    -0.14400
C200        C  0.10741312  0.45450095  0.14543160     0.38000
N201        N  0.08903092  0.40611040  0.15205598    -0.88600
H202        H  0.16208796  0.41735876  0.14584435     0.19100
H203        H  0.09473168  0.08475584  0.14589068     0.19100
N204        N  0.17018841  0.09534968  0.14764360    -0.87600
H205        H  0.09306480  0.38047112  0.13552129     0.36500
H206        H  0.05973244  0.40960942  0.15566053     0.41600
H207        H  0.18372944  0.09429917  0.16687693     0.41200
H208        H  0.15143038  0.12682378  0.14832019     0.36100
C209        C  0.02733241  0.03395153  0.25520671    -0.25700
C210        C  0.50371882  0.99724893  0.24198406    -0.13700
C211        C  0.48001460  0.46482264  0.25807878     0.36900
C212        C  0.47967156  0.47056346  0.28701345    -0.25100
C213        C  0.50310976  0.00739630  0.30027529    -0.14400
C214        C  0.02712571  0.03954800  0.28419575     0.38000
N215        N  0.05061389  0.07830590  0.29734619    -0.88600
H216        H  0.04534816  0.05901574  0.24277404     0.19100
H217        H  0.46176213  0.44529944  0.29940774     0.19100
N218        N  0.45707184  0.42543509  0.24495538    -0.87600
H219        H  0.06653227  0.09878768  0.28262889     0.36500
H220        H  0.03227256  0.10497889  0.30684512     0.41600
H221        H  0.47579864  0.39913095  0.23555216     0.41200
H222        H  0.44137691  0.40465867  0.25967923     0.36100
C223        C  0.04281902  0.00505454  0.64069313     0.30700
C224        C  0.46371169  0.50494816  0.64085523     0.30700
C225        C  0.02327156  0.49468581  0.66847757    -0.05500
C226        C  0.02372677  0.05677064  0.63176971    -0.06300
C227        C  0.02303662  0.46629029  0.62083592    -0.06200
C228        C  0.48350016  0.49446322  0.66858098    -0.05500
C229        C  0.48299799  0.05641270  0.63164557    -0.06300
C230        C  0.48301414  0.46660718  0.62074622    -0.08000
C231        C  0.47194823  0.49393068  0.69587248    -0.31600
N232        N  0.50363166  0.99354908  0.71223169     0.14900
C233        C  0.03513646  0.99471152  0.69566232    -0.31600
H234        H  0.06444955  0.99788666  0.70286937     0.16900
C235        C  0.47213640  0.09157140  0.61156326    -0.30600
N236        N  0.00355505  0.11562597  0.60125105     0.13600
C237        C  0.03496564  0.09347387  0.61241784    -0.30600
C238        C  0.47113550  0.43073291  0.60126210    -0.30900
N239        N  0.50262336  0.40739679  0.59047011     0.14100
H240        H  0.44183261  0.42124963  0.59582066     0.16800
C241        C  0.03439427  0.42925004  0.60188047    -0.30900
H242        H  0.06355724  0.41893546  0.59660233     0.16800
H243        H  0.06372239  0.09940176  0.60453842     0.16800
H244        H  0.44273266  0.49721361  0.70329785     0.16800
H245        H  0.44354632  0.09624199  0.60327018     0.16800
C246        C  0.29267951  0.99800050  0.64074000     0.30700
C247        C  0.21360379  0.49762735  0.63986050     0.30700
C248        C  0.27242220  0.50837806  0.66837795    -0.05500
C249        C  0.27352021  0.03730052  0.62116046    -0.06300
C250        C  0.27349782  0.44637603  0.63107013    -0.06200
C251        C  0.23263777  0.50816908  0.66785845    -0.05500
C252        C  0.23346849  0.03650792  0.62058240    -0.06300
C253        C  0.23285219  0.44651979  0.63045592    -0.06200
C254        C  0.22009010  0.51215357  0.69478787    -0.31600
N255        N  0.25115670  0.01456744  0.71169868     0.14900
C256        C  0.28329395  0.01247455  0.69573375    -0.31600
H257        H  0.31236135  0.01129095  0.70355351     0.16900
C258        C  0.22193616  0.07185418  0.60112687    -0.30600
N259        N  0.25352277  0.09578015  0.59092381     0.13600
C260        C  0.28517724  0.07459618  0.60251740    -0.30600
C261        C  0.22213607  0.41123603  0.61015105    -0.30900
N262        N  0.25367245  0.38744348  0.59996947     0.14100
H263        H  0.19356663  0.40603286  0.60182369     0.16800
C264        C  0.28497618  0.40964371  0.61168867    -0.30900
H265        H  0.31396992  0.40341062  0.60439121     0.16800
H266        H  0.31438941  0.08535424  0.59745159     0.16800
H267        H  0.19048142  0.51190808  0.70157949     0.16800
H268        H  0.19274063  0.08050872  0.59518514     0.16800
C269        C  0.46269538  0.49728333  0.90161152     0.30700
C270        C  0.04195928  0.99704282  0.90221221     0.30700
C271        C  0.48295110  0.50479334  0.87360171    -0.05500
C272        C  0.48195559  0.03825569  0.92024981    -0.06300
C273        C  0.48173068  0.44759307  0.91254052    -0.06200
C274        C  0.02297556  0.50528174  0.87376041    -0.05500
C275        C  0.02203770  0.04003101  0.91944607    -0.06300
C276        C  0.02199763  0.44714402  0.91222490    -0.06200
C277        C  0.03458630  0.00990881  0.84651949    -0.31600
N278        N  0.50300018  0.01057934  0.83006280     0.14900
C279        C  0.47136392  0.50744517  0.84644089    -0.31600
H280        H  0.44208545  0.50548680  0.83905462     0.16900
C281        C  0.03290609  0.08242230  0.93516606    -0.30600
N282        N  0.00133427  0.10242029  0.94757090     0.13600
C283        C  0.47006139  0.07555992  0.93885678    -0.30600
C284        C  0.03363742  0.40786692  0.92946621    -0.30900
N285        N  0.50219182  0.38628622  0.94124749     0.14100
H286        H  0.06288557  0.39934025  0.93533628     0.16800
C287        C  0.47070160  0.41140104  0.93202920    -0.30900
H288        H  0.44211032  0.40608537  0.94035858     0.16800
H289        H  0.44091614  0.08288701  0.94549857     0.16800
H290        H  0.06379081  0.01029529  0.83893723     0.16800
H291        H  0.06170801  0.09726794  0.93801348     0.16800
C292        C  0.21268252  0.49447680  0.90147299     0.30700
C293        C  0.29188811  0.99466832  0.90074176     0.30700
C294        C  0.23206396  0.50173644  0.87304577    -0.05500
C295        C  0.23255197  0.03848686  0.91808507    -0.06300
C296        C  0.23205764  0.44612413  0.91327428    -0.06200
C297        C  0.27200619  0.50068735  0.87268812    -0.05500
C298        C  0.27280897  0.03832790  0.91791253    -0.06300
C299        C  0.27231343  0.44615956  0.91305208    -0.06200
C300        C  0.28361381  0.00808283  0.84571694    -0.31600
N301        N  0.25189220  0.01434410  0.82979080     0.14900
C302        C  0.22045153  0.51167027  0.84636224    -0.31600
H303        H  0.19129209  0.51686062  0.83934841     0.16900
C304        C  0.28474666  0.07921734  0.93440032    -0.30600
N305        N  0.25325091  0.10420783  0.94406837     0.13600
C306        C  0.22145450  0.08019829  0.93411006    -0.30600
C307        C  0.28349710  0.41201171  0.93342822    -0.30900
N308        N  0.25198824  0.39035193  0.94505019     0.14100
H309        H  0.31245418  0.40621175  0.94081870     0.16800
C310        C  0.22050501  0.41209526  0.93370936    -0.30900
H311        H  0.19140035  0.40579850  0.94084341     0.16800
H312        H  0.19247689  0.09268359  0.93843866     0.16800
H313        H  0.31287365  0.00780029  0.83817318     0.16800
H314        H  0.31397197  0.08893544  0.93995725     0.16800
O315        O  0.47971988  0.35353080  0.98321007    -0.77800
C316        C  0.39866289  0.25024195  0.52156287     0.83200
O317        O  0.02495938  0.32631718  0.57644306    -0.79000
O318        O  0.48189530  0.14532820  0.55850380    -0.80400
O319        O  0.02503256  0.18091070  0.96466551    -0.80200
O320        O  0.02633083  0.31123342  0.96133184    -0.78900
Zn321      Zn  0.47079251  0.31456584  0.51885823     1.55700
O322        O  0.47889307  0.14074383  0.98831581    -0.80300
Cd323      Cd  0.03451615  0.24843703  0.98704709     1.59700
Cd324      Cd  0.03378918  0.25700923  0.55549256     1.59600
O325        O  0.09049659  0.24884702  0.99838324    -0.80300
O326        O  0.50227646  0.25280124  0.52110876    -1.90800
Cd327      Cd  0.47155645  0.18754259  0.52292449     1.59900
O328        O  0.09018449  0.25688921  0.54456102    -0.80200
O329        O  0.41547146  0.20702109  0.52376981    -0.78900
C330        C  0.50243714  0.36405116  0.57182108     0.83700
C331        C  0.50271743  0.34861710  0.96286004     0.83300
O332        O  0.41617280  0.29323466  0.51929501    -0.77800
C333        C  0.00161313  0.14333558  0.96768158     0.84100
O334        O  0.47979257  0.36403266  0.55113631    -0.77900
C335        C  0.10745823  0.25289750  0.52150755     0.84300
C336        C  0.00358078  0.15297422  0.57933577     0.84600
O337        O  0.02487611  0.19320672  0.58135762    -0.80300
O338        O  0.16713063  0.29351156  0.52294286    -0.77800
C339        C  0.25402255  0.34902211  0.57834515     0.83200
O340        O  0.27489476  0.31317133  0.96311333    -0.79000
O341        O  0.34030179  0.24766782  0.54443208    -0.80400
O342        O  0.22905234  0.13723202  0.55218777    -0.80200
O343        O  0.16414772  0.20711501  0.51974165    -0.78900
Zn344      Zn  0.22241413  0.31278200  0.52203709     1.55700
O345        O  0.27608993  0.17596914  0.57574600    -0.80300
Cd346      Cd  0.21981247  0.18583966  0.51917182     1.59700
Cd347      Cd  0.28478374  0.24835642  0.98683175     1.59600
O348        O  0.22823709  0.14281556  0.98368797    -0.80300
O349        O  0.25235677  0.24928615  0.52085247    -1.90800
Cd350      Cd  0.28403940  0.24555666  0.55513181     1.59900
O351        O  0.27750292  0.18154002  0.96286112    -0.80200
O352        O  0.27490942  0.30893975  0.58114340    -0.78900
C353        C  0.25253316  0.35166625  0.96617272     0.83700
C354        C  0.14847144  0.25120471  0.52153624     0.83300
O355        O  0.23313128  0.35539793  0.55696763    -0.77800
C356        C  0.25302022  0.13814351  0.57201613     0.84100
O357        O  0.23085362  0.35636277  0.98734962    -0.77900
C358        C  0.25298168  0.14487028  0.96433908     0.84300
C359        C  0.35766332  0.25009007  0.52138961     0.84600
O360        O  0.34080889  0.25117538  0.99815509    -0.80300
C361        C  0.39821660  0.45072518  0.89703674    -0.25700
C362        C  0.41839949  0.49796133  0.89931721    -0.13700
C363        C  0.39657130  0.04408792  0.89574875     0.36900
C364        C  0.35622842  0.04176191  0.89665237    -0.25100
C365        C  0.33616901  0.49458566  0.89887579    -0.14400
C366        C  0.35785072  0.44862799  0.89549252     0.38000
N367        N  0.33923143  0.40032425  0.88896490    -0.88600
H368        H  0.41397484  0.41497950  0.89490531     0.19100
H369        H  0.34037656  0.07743586  0.89442452     0.19100
N370        N  0.41353719  0.09341952  0.88927634    -0.87600
H371        H  0.35922315  0.37045951  0.88693886     0.36500
H372        H  0.32615847  0.40439471  0.86965533     0.41600
H373        H  0.44287335  0.09119077  0.88544357     0.41200
H374        H  0.40894100  0.11854739  0.90595576     0.36100
C375        C  0.14842653  0.00637943  0.92586831    -0.25700
C376        C  0.16835666  0.49075420  0.90193727    -0.13700
C377        C  0.14623782  0.46359443  0.88167397     0.36900
C378        C  0.10600752  0.46780347  0.88193694    -0.25100
C379        C  0.08626329  0.49371781  0.90328590    -0.14400
C380        C  0.10803395  0.00578419  0.92732914     0.38000
N381        N  0.08969580  0.01366869  0.95366864    -0.88600
H382        H  0.16438094  0.01547889  0.94439952     0.19100
H383        H  0.08995395  0.44720280  0.86620008     0.19100
N384        N  0.16244593  0.42660247  0.86269129    -0.87600
H385        H  0.10979270  0.02260607  0.96901486     0.36500
H386        H  0.07669967  0.97889989  0.95949633     0.41600
H387        H  0.19144173  0.41981860  0.86625905     0.41200
H388        H  0.15867430  0.43981963  0.84248815     0.36100
C389        C  0.27536942  0.04863270  0.75606907    -0.25700
C390        C  0.25038940  0.01550430  0.74151653    -0.13700
C391        C  0.22551576  0.48272343  0.75650801     0.36900
C392        C  0.22580811  0.48387889  0.78550878    -0.25100
C393        C  0.25104521  0.01652019  0.80004476    -0.14400
C394        C  0.27577096  0.04949469  0.78516118     0.38000
N395        N  0.30068034  0.08460945  0.79954357    -0.88600
H396        H  0.29440498  0.07420524  0.74475655     0.19100
H397        H  0.20705528  0.45787514  0.79679254     0.19100
N398        N  0.20108587  0.44658676  0.74239730    -0.87600
H399        H  0.32887029  0.07668487  0.79350666     0.36500
H400        H  0.29413848  0.12222316  0.79322594     0.41600
H401        H  0.20804667  0.40930943  0.74903916     0.41200
H402        H  0.17276571  0.45406777  0.74828558     0.36100
C403        C  0.39780755  0.04814950  0.64431128    -0.25700
C404        C  0.41938242  0.50217569  0.64292429    -0.13700
C405        C  0.39873426  0.45470114  0.64625557     0.36900
C406        C  0.35839824  0.45446301  0.64513483    -0.25100
C407        C  0.33697030  0.50023983  0.64275741    -0.14400
C408        C  0.35731445  0.04774386  0.64526038     0.38000
N409        N  0.33702267  0.09557053  0.64926214    -0.88600
H410        H  0.41245590  0.08496104  0.64603300     0.19100
H411        H  0.34377434  0.41776387  0.64760118     0.19100
N412        N  0.41690988  0.40616309  0.65234611    -0.87600
H413        H  0.35603938  0.12698593  0.64989750     0.36500
H414        H  0.32373875  0.09417079  0.66862797     0.41600
H415        H  0.44629645  0.40958032  0.65559734     0.41200
H416        H  0.41246181  0.38101638  0.63563960     0.36100
C417        C  0.14768581  0.45412347  0.64370297    -0.25700
C418        C  0.16938531  0.49989558  0.64131991    -0.13700
C419        C  0.14947988  0.04748170  0.64405466     0.36900
C420        C  0.10902902  0.04796384  0.64369452    -0.25100
C421        C  0.08710361  0.50207558  0.64241503    -0.14400
C422        C  0.10741300  0.45450091  0.64543165     0.38000
N423        N  0.08903070  0.40611041  0.65205596    -0.88600
H424        H  0.16208780  0.41735859  0.64584427     0.19100
H425        H  0.09473157  0.08475579  0.64589060     0.19100
N426        N  0.17018827  0.09534971  0.64764371    -0.87600
H427        H  0.09306458  0.38047132  0.63552135     0.36500
H428        H  0.05973194  0.40960947  0.65566047     0.41600
H429        H  0.18372932  0.09429919  0.66687697     0.41200
H430        H  0.15143014  0.12682375  0.64832040     0.36100
C431        C  0.02733241  0.03395140  0.75520671    -0.25700
C432        C  0.50371878  0.99724884  0.74198407    -0.13700
C433        C  0.48001465  0.46482269  0.75807879     0.36900
C434        C  0.47967164  0.47056347  0.78701346    -0.25100
C435        C  0.50310984  0.00739609  0.80027532    -0.14400
C436        C  0.02712581  0.03954781  0.78419575     0.38000
N437        N  0.05061402  0.07830567  0.79734616    -0.88600
H438        H  0.04534813  0.05901561  0.74277403     0.19100
H439        H  0.46176226  0.44529942  0.79940777     0.19100
N440        N  0.45707190  0.42543518  0.74495536    -0.87600
H441        H  0.06653240  0.09878751  0.78262876     0.36500
H442        H  0.03227281  0.10497852  0.80684507     0.41600
H443        H  0.47579866  0.39913114  0.73555219     0.41200
H444        H  0.44137690  0.40465874  0.75967923     0.36100
C445        C  0.04281903  0.50505460  0.14069313     0.30700
C446        C  0.46371171  0.00494821  0.14085521     0.30700
C447        C  0.02327159  0.99468591  0.16847756    -0.05500
C448        C  0.02372676  0.55677070  0.13176973    -0.06300
C449        C  0.02303666  0.96629029  0.12083595    -0.06200
C450        C  0.48350016  0.99446323  0.16858097    -0.05500
C451        C  0.48299799  0.55641274  0.13164556    -0.06300
C452        C  0.48301419  0.96660727  0.12074620    -0.08000
C453        C  0.47194826  0.99393058  0.19587248    -0.31600
N454        N  0.50363172  0.49354908  0.21223167     0.14900
C455        C  0.03513648  0.49471172  0.19566227    -0.31600
H456        H  0.06444957  0.49788706  0.20286928     0.16900
C457        C  0.47213644  0.59157138  0.11156321    -0.30600
N458        N  0.00355511  0.61562589  0.10125099     0.13600
C459        C  0.03496568  0.59347398  0.11241790    -0.30600
C460        C  0.47113557  0.93073312  0.10126201    -0.30900
N461        N  0.50262344  0.90739685  0.09047010     0.14100
H462        H  0.44183268  0.92124996  0.09582055     0.16800
C463        C  0.03439429  0.92924999  0.10188053    -0.30900
H464        H  0.06355727  0.91893534  0.09660243     0.16800
H465        H  0.06372248  0.59940194  0.10453856     0.16800
H466        H  0.44273270  0.99721345  0.20329790     0.16800
H467        H  0.44354636  0.59624201  0.10327013     0.16800
C468        C  0.29267957  0.49800060  0.14073999     0.30700
C469        C  0.21360383  0.99762739  0.13986048     0.30700
C470        C  0.27242222  0.00837812  0.16837794    -0.05500
C471        C  0.27352022  0.53730062  0.12116047    -0.06300
C472        C  0.27349785  0.94637604  0.13107014    -0.06200
C473        C  0.23263778  0.00816921  0.16785843    -0.05500
C474        C  0.23346852  0.53650797  0.12058239    -0.06300
C475        C  0.23285223  0.94651980  0.13045594    -0.06200
C476        C  0.22009008  0.01215359  0.19478784    -0.31600
N477        N  0.25115674  0.51456755  0.21169866     0.14900
C478        C  0.28329400  0.51247457  0.19573374    -0.31600
H479        H  0.31236141  0.51129099  0.20355346     0.16900
C480        C  0.22193616  0.57185419  0.10112684    -0.30600
N481        N  0.25352275  0.59578020  0.09092377     0.13600
C482        C  0.28517722  0.57459618  0.10251734    -0.30600
C483        C  0.22213608  0.91123600  0.11015110    -0.30900
N484        N  0.25367246  0.88744345  0.09996949     0.14100
H485        H  0.19356664  0.90603289  0.10182374     0.16800
C486        C  0.28497621  0.90964368  0.11168870    -0.30900
H487        H  0.31396995  0.90341063  0.10439123     0.16800
H488        H  0.31438939  0.58535416  0.09745146     0.16800
H489        H  0.19048138  0.01190807  0.20157943     0.16800
H490        H  0.19274062  0.58050860  0.09518512     0.16800
C491        C  0.46269538  0.99728331  0.40161149     0.30700
C492        C  0.04195924  0.49704272  0.40221215     0.30700
C493        C  0.48295113  0.00479333  0.37360169    -0.05500
C494        C  0.48195556  0.53825570  0.42024979    -0.06300
C495        C  0.48173065  0.94759300  0.41254046    -0.06200
C496        C  0.02297555  0.00528170  0.37376037    -0.05500
C497        C  0.02203768  0.54003093  0.41944603    -0.06300
C498        C  0.02199758  0.94714392  0.41222481    -0.06200
C499        C  0.03458626  0.50990872  0.34651944    -0.31600
N500        N  0.50300012  0.51057933  0.33006277     0.14900
C501        C  0.47136393  0.00744515  0.34644090    -0.31600
H502        H  0.44208543  0.00548681  0.33905469     0.16900
C503        C  0.03290606  0.58242219  0.43516604    -0.30600
N504        N  0.00133423  0.60242032  0.44757080     0.13600
C505        C  0.47006133  0.57555994  0.43885674    -0.30600
C506        C  0.03363735  0.90786686  0.42946614    -0.30900
N507        N  0.50219178  0.88628613  0.44124741     0.14100
H508        H  0.06288549  0.89934026  0.43533625     0.16800
C509        C  0.47070158  0.91140099  0.43202915    -0.30900
H510        H  0.44211034  0.90608540  0.44035861     0.16800
H511        H  0.44091607  0.58288702  0.44549854     0.16800
H512        H  0.06379076  0.51029522  0.33893713     0.16800
H513        H  0.06170800  0.59726776  0.43801347     0.16800
C514        C  0.21268252  0.99447676  0.40147300     0.30700
C515        C  0.29188810  0.49466831  0.40074176     0.30700
C516        C  0.23206395  0.00173639  0.37304577    -0.05500
C517        C  0.23255198  0.53848678  0.41808512    -0.06300
C518        C  0.23205763  0.94612408  0.41327426    -0.06200
C519        C  0.27200619  0.00068735  0.37268812    -0.05500
C520        C  0.27280899  0.53832782  0.41791257    -0.06300
C521        C  0.27231343  0.94615955  0.41305211    -0.06200
C522        C  0.28361376  0.50808280  0.34571692    -0.31600
N523        N  0.25189216  0.51434404  0.32979079     0.14900
C524        C  0.22045151  0.01167020  0.34636223    -0.31600
H525        H  0.19129208  0.01686057  0.33934840     0.16900
C526        C  0.28474671  0.57921726  0.43440035    -0.30600
N527        N  0.25325094  0.60420777  0.44406836     0.13600
C528        C  0.22145451  0.58019819  0.43411010    -0.30600
C529        C  0.28349707  0.91201174  0.43342827    -0.30900
N530        N  0.25198819  0.89035200  0.44505022     0.14100
H531        H  0.31245415  0.90621172  0.44081873     0.16800
C532        C  0.22050495  0.91209517  0.43370931    -0.30900
H533        H  0.19140027  0.90579825  0.44084328     0.16800
H534        H  0.19247692  0.59268350  0.43843869     0.16800
H535        H  0.31287359  0.50780038  0.33817315     0.16800
H536        H  0.31397204  0.58893542  0.43995723     0.16800
O537        O  0.47971998  0.85353100  0.48321009    -0.77800
C538        C  0.39866295  0.75024196  0.02156291     0.83200
O539        O  0.02495931  0.82631713  0.07644313    -0.79000
O540        O  0.48189524  0.64532828  0.05850381    -0.80400
O541        O  0.02503266  0.68091067  0.46466542    -0.80200
O542        O  0.02633078  0.81123339  0.46133177    -0.78900
Zn543      Zn  0.47079258  0.81456583  0.01885827     1.55700
O544        O  0.47889307  0.64074389  0.48831571    -0.80300
Cd545      Cd  0.03451626  0.74843712  0.48704700     1.59700
Cd546      Cd  0.03378931  0.75700919  0.05549262     1.59600
O547        O  0.09049672  0.74884700  0.49838323    -0.80300
O548        O  0.50227652  0.75280135  0.02110884    -1.90800
Cd549      Cd  0.47155655  0.68754275  0.02292455     1.59900
O550        O  0.09018459  0.75688916  0.04456106    -0.80200
O551        O  0.41547155  0.70702112  0.02376986    -0.78900
C552        C  0.50243721  0.86405113  0.07182113     0.83700
C553        C  0.50271745  0.84861713  0.46286001     0.83300
O554        O  0.41617283  0.79323468  0.01929506    -0.77800
C555        C  0.00161310  0.64333567  0.46768145     0.84100
O556        O  0.47979270  0.86403264  0.05113633    -0.77900
C557        C  0.10745819  0.75289758  0.02150753     0.84300
C558        C  0.00358083  0.65297416  0.07933573     0.84600
O559        O  0.02487607  0.69320672  0.08135765    -0.80300
O560        O  0.16713056  0.79351161  0.02294290    -0.77800
C561        C  0.25402256  0.84902217  0.07834510     0.83200
O562        O  0.27489469  0.81317139  0.46311336    -0.79000
O563        O  0.34030180  0.74766798  0.04443208    -0.80400
O564        O  0.22905243  0.63723215  0.05218772    -0.80200
O565        O  0.16414762  0.70711509  0.01974149    -0.78900
Zn566      Zn  0.22241404  0.81278192  0.02203712     1.55700
O567        O  0.27609004  0.67596917  0.07574595    -0.80300
Cd568      Cd  0.21981238  0.68583983  0.01917182     1.59700
Cd569      Cd  0.28478366  0.74835639  0.48683176     1.59600
O570        O  0.22823703  0.64281563  0.48368784    -0.80300
O571        O  0.25235670  0.74928616  0.02085244    -1.90800
Cd572      Cd  0.28403937  0.74555667  0.05513171     1.59900
O573        O  0.27750296  0.68153999  0.46286106    -0.80200
O574        O  0.27490952  0.80893989  0.08114325    -0.78900
C575        C  0.25253307  0.85166628  0.46617273     0.83700
C576        C  0.14847137  0.75120478  0.02153613     0.83300
O577        O  0.23313116  0.85539796  0.05696764    -0.77800
C578        C  0.25302030  0.63814358  0.07201608     0.84100
O579        O  0.23085350  0.85636277  0.48734961    -0.77900
C580        C  0.25298167  0.64487031  0.46433899     0.84300
C581        C  0.35766337  0.75009009  0.02138963     0.84600
O582        O  0.34080881  0.75117562  0.49815509    -0.80300
C583        C  0.39821654  0.95072527  0.39703673    -0.25700
C584        C  0.41839946  0.99796138  0.39931724    -0.13700
C585        C  0.39657128  0.54408790  0.39574881     0.36900
C586        C  0.35622841  0.54176190  0.39665242    -0.25100
C587        C  0.33616898  0.99458572  0.39887581    -0.14400
C588        C  0.35785069  0.94862806  0.39549247     0.38000
N589        N  0.33923139  0.90032429  0.38896494    -0.88600
H590        H  0.41397478  0.91497957  0.39490531     0.19100
H591        H  0.34037658  0.57743588  0.39442455     0.19100
N592        N  0.41353713  0.59341949  0.38927639    -0.87600
H593        H  0.35922328  0.87045932  0.38693898     0.36500
H594        H  0.32615850  0.90439448  0.36965548     0.41600
H595        H  0.44287324  0.59119075  0.38544353     0.41200
H596        H  0.40894098  0.61854733  0.40595587     0.36100
C597        C  0.14842648  0.50637934  0.42586836    -0.25700
C598        C  0.16835666  0.99075412  0.40193729    -0.13700
C599        C  0.14623782  0.96359436  0.38167399     0.36900
C600        C  0.10600755  0.96780344  0.38193690    -0.25100
C601        C  0.08626328  0.99371771  0.40328587    -0.14400
C602        C  0.10803387  0.50578407  0.42732910     0.38000
N603        N  0.08969563  0.51366857  0.45366856    -0.88600
H604        H  0.16438081  0.51547885  0.44439958     0.19100
H605        H  0.08995404  0.94720283  0.36619999     0.19100
N606        N  0.16244590  0.92660234  0.36269134    -0.87600
H607        H  0.10979224  0.52260596  0.46901468     0.36500
H608        H  0.07669948  0.47889954  0.45949627     0.41600
H609        H  0.19144155  0.91981845  0.36625910     0.41200
H610        H  0.15867429  0.93981955  0.34248822     0.36100
C611        C  0.27536953  0.54863270  0.25606907    -0.25700
C612        C  0.25038942  0.51550444  0.24151652    -0.13700
C613        C  0.22551571  0.98272345  0.25650802     0.36900
C614        C  0.22580801  0.98387901  0.28550878    -0.25100
C615        C  0.25104518  0.51652022  0.30004475    -0.14400
C616        C  0.27577109  0.54949457  0.28516117     0.38000
N617        N  0.30068053  0.58460923  0.29954357    -0.88600
H618        H  0.29440517  0.57420517  0.24475657     0.19100
H619        H  0.20705517  0.95787527  0.29679254     0.19100
N620        N  0.20108595  0.94658659  0.24239733    -0.87600
H621        H  0.32887074  0.57668462  0.29350656     0.36500
H622        H  0.29413869  0.62222254  0.29322612     0.41600
H623        H  0.20804685  0.90930934  0.24903927     0.41200
H624        H  0.17276576  0.95406747  0.24828556     0.36100
C625        C  0.39780758  0.54814956  0.14431130    -0.25700
C626        C  0.41938245  0.00217575  0.14292425    -0.13700
C627        C  0.39873436  0.95470122  0.14625560     0.36900
C628        C  0.35839832  0.95446300  0.14513489    -0.25100
C629        C  0.33697034  0.00023982  0.14275745    -0.14400
C630        C  0.35731446  0.54774398  0.14526043     0.38000
N631        N  0.33702266  0.59557069  0.14926219    -0.88600
H632        H  0.41245594  0.58496108  0.14603307     0.19100
H633        H  0.34377446  0.91776385  0.14760124     0.19100
N634        N  0.41691006  0.90616325  0.15234619    -0.87600
H635        H  0.35603933  0.62698606  0.14989746     0.36500
H636        H  0.32373878  0.59417110  0.16862811     0.41600
H637        H  0.44629689  0.90958059  0.15559734     0.41200
H638        H  0.41246201  0.88101670  0.13563991     0.36100
C639        C  0.14768590  0.95412358  0.14370299    -0.25700
C640        C  0.16938536  0.99989566  0.14131988    -0.13700
C641        C  0.14947994  0.54748169  0.14405468     0.36900
C642        C  0.10902907  0.54796385  0.14369458    -0.25100
C643        C  0.08710367  0.00207562  0.14241502    -0.14400
C644        C  0.10741311  0.95450095  0.14543159     0.38000
N645        N  0.08903089  0.90611040  0.15205597    -0.88600
H646        H  0.16208794  0.91735874  0.14584437     0.19100
H647        H  0.09473166  0.58475583  0.14589068     0.19100
N648        N  0.17018838  0.59534969  0.14764362    -0.87600
H649        H  0.09306476  0.88047111  0.13552129     0.36500
H650        H  0.05973241  0.90960944  0.15566054     0.41600
H651        H  0.18372949  0.59429929  0.16687693     0.41200
H652        H  0.15143034  0.62682377  0.14832019     0.36100
C653        C  0.02733245  0.53395140  0.25520670    -0.25700
C654        C  0.50371878  0.49724884  0.24198406    -0.13700
C655        C  0.48001462  0.96482279  0.25807879     0.36900
C656        C  0.47967160  0.97056359  0.28701345    -0.25100
C657        C  0.50310981  0.50739609  0.30027530    -0.14400
C658        C  0.02712583  0.53954781  0.28419575     0.38000
N659        N  0.05061389  0.57830583  0.29734618    -0.88600
H660        H  0.04534808  0.55901573  0.24277403     0.19100
H661        H  0.46176221  0.94529949  0.29940774     0.19100
N662        N  0.45707177  0.92543538  0.24495537    -0.87600
H663        H  0.06653223  0.59878766  0.28262888     0.36500
H664        H  0.03227242  0.60497874  0.30684504     0.41600
H665        H  0.47579840  0.89913133  0.23555215     0.41200
H666        H  0.44137676  0.90465892  0.25967929     0.36100
C667        C  0.04281901  0.50505454  0.64069313     0.30700
C668        C  0.46371171  0.00494819  0.64085523     0.30700
C669        C  0.02327157  0.99468578  0.66847757    -0.05500
C670        C  0.02372675  0.55677061  0.63176970    -0.06300
C671        C  0.02303662  0.96629031  0.62083591    -0.06200
C672        C  0.48350018  0.99446321  0.66858097    -0.05500
C673        C  0.48299797  0.55641266  0.63164555    -0.06300
C674        C  0.48301414  0.96660726  0.62074620    -0.08000
C675        C  0.47194823  0.99393066  0.69587246    -0.31600
N676        N  0.50363167  0.49354912  0.71223169     0.14900
C677        C  0.03513643  0.49471155  0.69566233    -0.31600
H678        H  0.06444950  0.49788667  0.70286941     0.16900
C679        C  0.47213640  0.59157137  0.61156324    -0.30600
N680        N  0.00355503  0.61562596  0.60125106     0.13600
C681        C  0.03496561  0.59347387  0.61241785    -0.30600
C682        C  0.47113549  0.93073294  0.60126210    -0.30900
N683        N  0.50262336  0.90739678  0.59047012     0.14100
H684        H  0.44183260  0.92124963  0.59582068     0.16800
C685        C  0.03439425  0.92925001  0.60188048    -0.30900
H686        H  0.06355721  0.91893540  0.59660234     0.16800
H687        H  0.06372238  0.59940181  0.60453847     0.16800
H688        H  0.44273265  0.99721358  0.70329780     0.16800
H689        H  0.44354632  0.59624197  0.60327016     0.16800
C690        C  0.29267951  0.49800059  0.64073999     0.30700
C691        C  0.21360379  0.99762736  0.63986050     0.30700
C692        C  0.27242221  0.00837805  0.66837794    -0.05500
C693        C  0.27352019  0.53730061  0.62116046    -0.06300
C694        C  0.27349779  0.94637596  0.63107015    -0.06200
C695        C  0.23263778  0.00816912  0.66785844    -0.05500
C696        C  0.23346848  0.53650797  0.62058241    -0.06300
C697        C  0.23285215  0.94651977  0.63045593    -0.06200
C698        C  0.22009012  0.01215352  0.69478787    -0.31600
N699        N  0.25115669  0.51456767  0.71169867     0.14900
C700        C  0.28329393  0.51247466  0.69573376    -0.31600
H701        H  0.31236132  0.51129111  0.70355353     0.16900
C702        C  0.22193612  0.57185418  0.60112686    -0.30600
N703        N  0.25352272  0.59578013  0.59092377     0.13600
C704        C  0.28517721  0.57459616  0.60251732    -0.30600
C705        C  0.22213603  0.91123604  0.61015104    -0.30900
N706        N  0.25367241  0.88744345  0.59996947     0.14100
H707        H  0.19356660  0.90603292  0.60182366     0.16800
C708        C  0.28497614  0.90964367  0.61168867    -0.30900
H709        H  0.31396989  0.90341058  0.60439121     0.16800
H710        H  0.31438937  0.58535417  0.59745144     0.16800
H711        H  0.19048145  0.01190809  0.70157949     0.16800
H712        H  0.19274059  0.58050868  0.59518514     0.16800
C713        C  0.46269540  0.99728332  0.90161152     0.30700
C714        C  0.04195927  0.49704282  0.90221218     0.30700
C715        C  0.48295113  0.00479329  0.87360172    -0.05500
C716        C  0.48195556  0.53825567  0.92024984    -0.06300
C717        C  0.48173067  0.94759305  0.91254053    -0.06200
C718        C  0.02297556  0.00528175  0.87376044    -0.05500
C719        C  0.02203769  0.54003101  0.91944606    -0.06300
C720        C  0.02199762  0.94714402  0.91222490    -0.06200
C721        C  0.03458629  0.50990882  0.84651946    -0.31600
N722        N  0.50300016  0.51057941  0.83006279     0.14900
C723        C  0.47136395  0.00744499  0.84644091    -0.31600
H724        H  0.44208547  0.00548649  0.83905466     0.16900
C725        C  0.03290606  0.58242229  0.93516606    -0.30600
N726        N  0.00133425  0.60242027  0.94757090     0.13600
C727        C  0.47006138  0.57555983  0.93885686    -0.30600
C728        C  0.03363743  0.90786692  0.92946619    -0.30900
N729        N  0.50219181  0.88628618  0.94124748     0.14100
H730        H  0.06288559  0.89934029  0.93533627     0.16800
C731        C  0.47070158  0.91140103  0.93202921    -0.30900
H732        H  0.44211032  0.90608540  0.94035862     0.16800
H733        H  0.44091613  0.58288690  0.94549869     0.16800
H734        H  0.06379079  0.51029534  0.83893718     0.16800
H735        H  0.06170798  0.59726795  0.93801348     0.16800
C736        C  0.21268252  0.99447681  0.90147300     0.30700
C737        C  0.29188810  0.49466832  0.90074174     0.30700
C738        C  0.23206397  0.00173643  0.87304577    -0.05500
C739        C  0.23255196  0.53848684  0.91808508    -0.06300
C740        C  0.23205763  0.94612414  0.91327431    -0.06200
C741        C  0.27200621  0.00068734  0.87268813    -0.05500
C742        C  0.27280895  0.53832788  0.91791253    -0.06300
C743        C  0.27231342  0.94615959  0.91305214    -0.06200
C744        C  0.28361379  0.50808285  0.84571693    -0.31600
N745        N  0.25189219  0.51434409  0.82979079     0.14900
C746        C  0.22045154  0.01167029  0.84636224    -0.31600
H747        H  0.19129212  0.01686063  0.83934840     0.16900
C748        C  0.28474663  0.57921733  0.93440033    -0.30600
N749        N  0.25325088  0.60420781  0.94406837     0.13600
C750        C  0.22145447  0.58019827  0.93411006    -0.30600
C751        C  0.28349706  0.91201167  0.93342826    -0.30900
N752        N  0.25198820  0.89035188  0.94505021     0.14100
H753        H  0.31245414  0.90621164  0.94081874     0.16800
C754        C  0.22050497  0.91209523  0.93370937    -0.30900
H755        H  0.19140030  0.90579844  0.94084340     0.16800
H756        H  0.19247686  0.59268356  0.93843866     0.16800
H757        H  0.31287363  0.50780039  0.83817319     0.16800
H758        H  0.31397194  0.58893544  0.93995725     0.16800
O759        O  0.47971998  0.85353082  0.98321011    -0.77800
C760        C  0.39866286  0.75024194  0.52156287     0.83200
O761        O  0.02495935  0.82631717  0.57644307    -0.79000
O762        O  0.48189528  0.64532826  0.55850383    -0.80400
O763        O  0.02503253  0.68091067  0.96466551    -0.80200
O764        O  0.02633086  0.81123339  0.96133183    -0.78900
Zn765      Zn  0.47079248  0.81456589  0.51885822     1.55700
O766        O  0.47889304  0.64074382  0.98831582    -0.80300
Cd767      Cd  0.03451614  0.74843700  0.98704709     1.59700
Cd768      Cd  0.03378919  0.75700923  0.55549256     1.59600
O769        O  0.09049659  0.74884700  0.99838324    -0.80300
O770        O  0.50227647  0.75280134  0.52110873    -1.90800
Cd771      Cd  0.47155645  0.68754262  0.52292449     1.59900
O772        O  0.09018454  0.75688926  0.54456104    -0.80200
O773        O  0.41547142  0.70702106  0.52376981    -0.78900
C774        C  0.50243716  0.86405115  0.57182108     0.83700
C775        C  0.50271746  0.84861707  0.96286004     0.83300
O776        O  0.41617278  0.79323463  0.51929500    -0.77800
C777        C  0.00161309  0.64333556  0.96768157     0.84100
O778        O  0.47979259  0.86403264  0.55113631    -0.77900
C779        C  0.10745825  0.75289762  0.52150755     0.84300
C780        C  0.00358081  0.65297420  0.57933577     0.84600
O781        O  0.02487609  0.69320675  0.58135766    -0.80300
O782        O  0.16713063  0.79351168  0.52294286    -0.77800
C783        C  0.25402251  0.84902208  0.57834515     0.83200
O784        O  0.27489478  0.81317127  0.96311332    -0.79000
O785        O  0.34030175  0.74766775  0.54443207    -0.80400
O786        O  0.22905230  0.63723201  0.55218775    -0.80200
O787        O  0.16414770  0.70711513  0.51974163    -0.78900
Zn788      Zn  0.22241411  0.81278199  0.52203709     1.55700
O789        O  0.27608988  0.67596912  0.57574599    -0.80300
Cd790      Cd  0.21981243  0.68583966  0.51917180     1.59700
Cd791      Cd  0.28478372  0.74835639  0.98683176     1.59600
O792        O  0.22823706  0.64281554  0.98368797    -0.80300
O793        O  0.25235674  0.74928611  0.52085247    -1.90800
Cd794      Cd  0.28403937  0.74555664  0.55513181     1.59900
O795        O  0.27750288  0.68154000  0.96286112    -0.80200
O796        O  0.27490938  0.80893973  0.58114340    -0.78900
C797        C  0.25253312  0.85166613  0.96617271     0.83700
C798        C  0.14847144  0.75120484  0.52153621     0.83300
O799        O  0.23313125  0.85539791  0.55696763    -0.77800
C800        C  0.25302017  0.63814350  0.57201611     0.84100
O801        O  0.23085356  0.85636256  0.98734960    -0.77900
C802        C  0.25298165  0.64487026  0.96433908     0.84300
C803        C  0.35766328  0.75009013  0.52138961     0.84600
O804        O  0.34080891  0.75117534  0.99815509    -0.80300
C805        C  0.39821659  0.95072518  0.89703673    -0.25700
C806        C  0.41839951  0.99796133  0.89931721    -0.13700
C807        C  0.39657127  0.54408792  0.89574875     0.36900
C808        C  0.35622839  0.54176192  0.89665237    -0.25100
C809        C  0.33616903  0.99458566  0.89887580    -0.14400
C810        C  0.35785072  0.94862799  0.89549252     0.38000
N811        N  0.33923140  0.90032424  0.88896492    -0.88600
H812        H  0.41397482  0.91497948  0.89490531     0.19100
H813        H  0.34037653  0.57743586  0.89442451     0.19100
N814        N  0.41353716  0.59341951  0.88927634    -0.87600
H815        H  0.35922312  0.87045943  0.88693894     0.36500
H816        H  0.32615853  0.90439463  0.86965532     0.41600
H817        H  0.44287331  0.59119074  0.88544359     0.41200
H818        H  0.40894097  0.61854737  0.90595577     0.36100
C819        C  0.14842653  0.50637941  0.92586831    -0.25700
C820        C  0.16835665  0.99075420  0.90193727    -0.13700
C821        C  0.14623780  0.96359442  0.88167398     0.36900
C822        C  0.10600750  0.96780346  0.88193696    -0.25100
C823        C  0.08626328  0.99371781  0.90328594    -0.14400
C824        C  0.10803393  0.50578417  0.92732907     0.38000
N825        N  0.08969572  0.51366867  0.95366854    -0.88600
H826        H  0.16438091  0.51547886  0.94439952     0.19100
H827        H  0.08995392  0.94720278  0.86620011     0.19100
N828        N  0.16244590  0.92660245  0.86269129    -0.87600
H829        H  0.10979234  0.52260604  0.96901465     0.36500
H830        H  0.07669957  0.47889962  0.95949623     0.41600
H831        H  0.19144170  0.91981861  0.86625905     0.41200
H832        H  0.15867427  0.93981962  0.84248816     0.36100
C833        C  0.27536951  0.54863269  0.75606909    -0.25700
C834        C  0.25038938  0.51550446  0.74151653    -0.13700
C835        C  0.22551574  0.98272334  0.75650803     0.36900
C836        C  0.22580808  0.98387888  0.78550880    -0.25100
C837        C  0.25104520  0.51652021  0.80004476    -0.14400
C838        C  0.27577099  0.54949466  0.78516119     0.38000
N839        N  0.30068036  0.58460940  0.79954359    -0.88600
H840        H  0.29440516  0.57420516  0.74475659     0.19100
H841        H  0.20705524  0.95787517  0.79679257     0.19100
N842        N  0.20108582  0.94658670  0.74239731    -0.87600
H843        H  0.32887043  0.57668471  0.79350669     0.36500
H844        H  0.29413857  0.62222280  0.79322598     0.41600
H845        H  0.20804659  0.90930937  0.74903917     0.41200
H846        H  0.17276567  0.95406775  0.74828558     0.36100
C847        C  0.39780754  0.54814955  0.64431127    -0.25700
C848        C  0.41938246  0.00217566  0.64292430    -0.13700
C849        C  0.39873428  0.95470111  0.64625557     0.36900
C850        C  0.35839830  0.95446293  0.64513483    -0.25100
C851        C  0.33697033  0.00023971  0.64275740    -0.14400
C852        C  0.35731443  0.54774401  0.64526038     0.38000
N853        N  0.33702271  0.59557073  0.64926214    -0.88600
H854        H  0.41245591  0.58496108  0.64603300     0.19100
H855        H  0.34377443  0.91776375  0.64760118     0.19100
N856        N  0.41690990  0.90616305  0.65234610    -0.87600
H857        H  0.35603954  0.62698622  0.64989749     0.36500
H858        H  0.32373879  0.59417110  0.66862797     0.41600
H859        H  0.44629621  0.90958021  0.65559729     0.41200
H860        H  0.41246176  0.88101623  0.63563951     0.36100
C861        C  0.14768585  0.95412357  0.64370296    -0.25700
C862        C  0.16938532  0.99989565  0.64131990    -0.13700
C863        C  0.14947987  0.54748163  0.64405466     0.36900
C864        C  0.10902901  0.54796380  0.64369452    -0.25100
C865        C  0.08710362  0.00207559  0.64241503    -0.14400
C866        C  0.10741307  0.95450094  0.64543163     0.38000
N867        N  0.08903086  0.90611037  0.65205595    -0.88600
H868        H  0.16208785  0.91735869  0.64584426     0.19100
H869        H  0.09473158  0.58475576  0.64589060     0.19100
N870        N  0.17018826  0.59534966  0.64764370    -0.87600
H871        H  0.09306479  0.88047122  0.63552120     0.36500
H872        H  0.05973239  0.90960932  0.65566047     0.41600
H873        H  0.18372920  0.59429923  0.66687699     0.41200
H874        H  0.15143012  0.62682372  0.64832031     0.36100
C875        C  0.02733242  0.53395145  0.75520670    -0.25700
C876        C  0.50371880  0.49724891  0.74198406    -0.13700
C877        C  0.48001467  0.96482258  0.75807880     0.36900
C878        C  0.47967163  0.97056340  0.78701348    -0.25100
C879        C  0.50310985  0.50739616  0.80027531    -0.14400
C880        C  0.02712581  0.53954792  0.78419574     0.38000
N881        N  0.05061394  0.57830589  0.79734614    -0.88600
H882        H  0.04534814  0.55901565  0.74277401     0.19100
H883        H  0.46176221  0.94529939  0.79940778     0.19100
N884        N  0.45707187  0.92543511  0.74495537    -0.87600
H885        H  0.06653237  0.59878772  0.78262873     0.36500
H886        H  0.03227263  0.60497879  0.80684501     0.41600
H887        H  0.47579855  0.89913102  0.73555215     0.41200
H888        H  0.44137686  0.90465868  0.75967923     0.36100
C889        C  0.54281905  0.00505459  0.14069313     0.30700
C890        C  0.96371168  0.50494819  0.14085520     0.30700
C891        C  0.52327157  0.49468579  0.16847754    -0.05500
C892        C  0.52372679  0.05677068  0.13176970    -0.06300
C893        C  0.52303665  0.46629032  0.12083592    -0.06200
C894        C  0.98350014  0.49446316  0.16858096    -0.05500
C895        C  0.98299798  0.05641269  0.13164554    -0.06300
C896        C  0.98301417  0.46660725  0.12074619    -0.08000
C897        C  0.97194826  0.49393059  0.19587248    -0.31600
N898        N  0.00363174  0.99354912  0.21223168     0.14900
C899        C  0.53513648  0.99471176  0.19566229    -0.31600
H900        H  0.56444957  0.99788703  0.20286930     0.16900
C901        C  0.97213643  0.09157126  0.11156317    -0.30600
N902        N  0.50355507  0.11562587  0.10125100     0.13600
C903        C  0.53496567  0.09347399  0.11241788    -0.30600
C904        C  0.97113558  0.43073301  0.10126205    -0.30900
N905        N  0.00262345  0.40739684  0.09047010     0.14100
H906        H  0.94183269  0.42124974  0.09582061     0.16800
C907        C  0.53439432  0.42925001  0.10188052    -0.30900
H908        H  0.56355731  0.41893540  0.09660244     0.16800
H909        H  0.56372245  0.09940206  0.10453855     0.16800
H910        H  0.94273271  0.49721347  0.20329791     0.16800
H911        H  0.94354635  0.09624185  0.10327007     0.16800
C912        C  0.79267954  0.99800060  0.14073999     0.30700
C913        C  0.71360380  0.49762739  0.13986049     0.30700
C914        C  0.77242221  0.50837811  0.16837794    -0.05500
C915        C  0.77352022  0.03730063  0.12116047    -0.06300
C916        C  0.77349781  0.44637606  0.13107013    -0.06200
C917        C  0.73263777  0.50816919  0.16785843    -0.05500
C918        C  0.73346852  0.03650797  0.12058239    -0.06300
C919        C  0.73285219  0.44651980  0.13045594    -0.06200
C920        C  0.72009008  0.51215357  0.19478785    -0.31600
N921        N  0.75115670  0.01456758  0.21169866     0.14900
C922        C  0.78329397  0.01247460  0.19573375    -0.31600
H923        H  0.81236136  0.01129101  0.20355350     0.16900
C924        C  0.72193617  0.07185420  0.10112684    -0.30600
N925        N  0.75352274  0.09578021  0.09092376     0.13600
C926        C  0.78517722  0.07459620  0.10251734    -0.30600
C927        C  0.72213607  0.41123598  0.11015110    -0.30900
N928        N  0.75367243  0.38744344  0.09996949     0.14100
H929        H  0.69356664  0.40603284  0.10182373     0.16800
C930        C  0.78497616  0.40964370  0.11168870    -0.30900
H931        H  0.81396992  0.40341068  0.10439125     0.16800
H932        H  0.81438939  0.08535417  0.09745147     0.16800
H933        H  0.69048139  0.51190806  0.20157943     0.16800
H934        H  0.69274063  0.08050861  0.09518512     0.16800
C935        C  0.96269538  0.49728331  0.40161151     0.30700
C936        C  0.54195925  0.99704272  0.40221213     0.30700
C937        C  0.98295113  0.50479330  0.37360170    -0.05500
C938        C  0.98195557  0.03825567  0.42024978    -0.06300
C939        C  0.98173065  0.44759304  0.41254053    -0.06200
C940        C  0.52297552  0.50528167  0.37376038    -0.05500
C941        C  0.52203771  0.04003091  0.41944603    -0.06300
C942        C  0.52199758  0.44714396  0.41222486    -0.06200
C943        C  0.53458624  0.00990877  0.34651941    -0.31600
N944        N  0.00300013  0.01057936  0.33006277     0.14900
C945        C  0.97136395  0.50744511  0.34644089    -0.31600
H946        H  0.94208548  0.50548678  0.33905464     0.16900
C947        C  0.53290609  0.08242218  0.43516604    -0.30600
N948        N  0.50133424  0.10242027  0.44757082     0.13600
C949        C  0.97006132  0.07555993  0.43885672    -0.30600
C950        C  0.53363738  0.40786687  0.42946615    -0.30900
N951        N  0.00219179  0.38628614  0.44124746     0.14100
H952        H  0.56288554  0.39934028  0.43533623     0.16800
C953        C  0.97070158  0.41140100  0.43202921    -0.30900
H954        H  0.94211034  0.40608535  0.44035865     0.16800
H955        H  0.94091606  0.08288701  0.44549850     0.16800
H956        H  0.56379073  0.01029527  0.33893709     0.16800
H957        H  0.56170802  0.09726780  0.43801350     0.16800
C958        C  0.71268252  0.49447675  0.40147301     0.30700
C959        C  0.79188806  0.99466835  0.40074176     0.30700
C960        C  0.73206396  0.50173637  0.37304577    -0.05500
C961        C  0.73255192  0.03848678  0.41808511    -0.06300
C962        C  0.73205763  0.44612410  0.41327429    -0.06200
C963        C  0.77200620  0.50068733  0.37268812    -0.05500
C964        C  0.77280892  0.03832784  0.41791256    -0.06300
C965        C  0.77231342  0.44615954  0.41305211    -0.06200
C966        C  0.78361378  0.00808281  0.34571693    -0.31600
N967        N  0.75189220  0.01434406  0.32979078     0.14900
C968        C  0.72045152  0.51167018  0.34636223    -0.31600
H969        H  0.69129210  0.51686055  0.33934839     0.16900
C970        C  0.78474662  0.07921726  0.43440036    -0.30600
N971        N  0.75325087  0.10420778  0.44406837     0.13600
C972        C  0.72145446  0.08019820  0.43411009    -0.30600
C973        C  0.78349707  0.41201174  0.43342827    -0.30900
N974        N  0.75198820  0.39035202  0.44505025     0.14100
H975        H  0.81245415  0.40621172  0.44081873     0.16800
C976        C  0.72050497  0.41209527  0.43370938    -0.30900
H977        H  0.69140029  0.40579840  0.44084338     0.16800
H978        H  0.69247685  0.09268351  0.43843870     0.16800
H979        H  0.81287363  0.00780038  0.33817320     0.16800
H980        H  0.81397193  0.08893540  0.43995728     0.16800
O981        O  0.97972000  0.35353086  0.48321011    -0.77800
C982        C  0.89866287  0.25024199  0.02156289     0.83200
O983        O  0.52495940  0.32631712  0.07644316    -0.79000
O984        O  0.98189524  0.14532829  0.05850380    -0.80400
O985        O  0.52503255  0.18091073  0.46466539    -0.80200
O986        O  0.52633088  0.31123342  0.46133180    -0.78900
Zn987      Zn  0.97079247  0.31456583  0.01885827     1.55700
O988        O  0.97889297  0.14074393  0.48831568    -0.80300
Cd989      Cd  0.53451612  0.24843712  0.48704700     1.59700
Cd990      Cd  0.53378935  0.25700920  0.05549262     1.59600
O991        O  0.59049658  0.24884695  0.49838324    -0.80300
O992        O  0.00227654  0.25280136  0.02110884    -1.90800
Cd993      Cd  0.97155644  0.18754279  0.02292453     1.59900
O994        O  0.59018463  0.25688919  0.04456105    -0.80200
O995        O  0.91547143  0.20702109  0.02376971    -0.78900
C996        C  0.00243717  0.36405114  0.07182111     0.83700
C997        C  0.00271748  0.34861709  0.46286004     0.83300
O998        O  0.91617279  0.29323468  0.01929510    -0.77800
C999        C  0.50161307  0.14333565  0.46768144     0.84100
O1000       O  0.97979258  0.36403263  0.05113636    -0.77900
C1001       C  0.60745824  0.25289760  0.02150753     0.84300
C1002       C  0.50358081  0.15297417  0.07933574     0.84600
O1003       O  0.52487611  0.19320669  0.08135765    -0.80300
O1004       O  0.66713062  0.29351163  0.02294291    -0.77800
C1005       C  0.75402254  0.34902214  0.07834511     0.83200
O1006       O  0.77489476  0.31317142  0.46311336    -0.79000
O1007       O  0.84030174  0.24766802  0.04443207    -0.80400
O1008       O  0.72905229  0.13723215  0.05218774    -0.80200
O1009       O  0.66414768  0.20711512  0.01974148    -0.78900
Zn1010     Zn  0.72241409  0.31278198  0.02203711     1.55700
O1011       O  0.77608990  0.17596923  0.07574594    -0.80300
Cd1012     Cd  0.71981243  0.18583986  0.01917182     1.59700
Cd1013     Cd  0.78478372  0.24835639  0.48683177     1.59600
O1014       O  0.72823697  0.14281551  0.48368789    -0.80300
O1015       O  0.75235678  0.24928618  0.02085243    -1.90800
Cd1016     Cd  0.78403937  0.24555668  0.05513171     1.59900
O1017       O  0.77750290  0.18153995  0.46286113    -0.80200
O1018       O  0.77490944  0.30893980  0.08114329    -0.78900
C1019       C  0.75253312  0.35166629  0.46617274     0.83700
C1020       C  0.64847142  0.25120481  0.02153614     0.83300
O1021       O  0.73313122  0.35539799  0.05696762    -0.77800
C1022       C  0.75302019  0.13814360  0.07201608     0.84100
O1023       O  0.73085356  0.35636276  0.48734963    -0.77900
C1024       C  0.75298162  0.14487024  0.46433905     0.84300
C1025       C  0.85766332  0.25009017  0.02138962     0.84600
O1026       O  0.84080887  0.25117534  0.49815508    -0.80300
C1027       C  0.89821657  0.45072520  0.39703673    -0.25700
C1028       C  0.91839947  0.49796133  0.39931725    -0.13700
C1029       C  0.89657127  0.04408797  0.39574880     0.36900
C1030       C  0.85622839  0.04176197  0.39665242    -0.25100
C1031       C  0.83616901  0.49458565  0.39887581    -0.14400
C1032       C  0.85785073  0.44862797  0.39549249     0.38000
N1033       N  0.83923143  0.40032419  0.38896495    -0.88600
H1034       H  0.91397482  0.41497949  0.39490532     0.19100
H1035       H  0.84037654  0.07743594  0.39442456     0.19100
N1036       N  0.91353716  0.09341955  0.38927638    -0.87600
H1037       H  0.85922334  0.37045918  0.38693890     0.36500
H1038       H  0.82615853  0.40439443  0.36965556     0.41600
H1039       H  0.94287330  0.09119077  0.38544359     0.41200
H1040       H  0.90894099  0.11854741  0.40595582     0.36100
C1041       C  0.64842647  0.00637934  0.42586830    -0.25700
C1042       C  0.66835664  0.49075413  0.40193730    -0.13700
C1043       C  0.64623781  0.46359437  0.38167400     0.36900
C1044       C  0.60600751  0.46780347  0.38193693    -0.25100
C1045       C  0.58626326  0.49371774  0.40328590    -0.14400
C1046       C  0.60803388  0.00578412  0.42732906     0.38000
N1047       N  0.58969570  0.01366861  0.45366853    -0.88600
H1048       H  0.66438086  0.01547880  0.44439952     0.19100
H1049       H  0.58995396  0.44720286  0.36620003     0.19100
N1050       N  0.66244590  0.42660238  0.36269134    -0.87600
H1051       H  0.60979237  0.02260598  0.46901465     0.36500
H1052       H  0.57669958  0.97889962  0.45949621     0.41600
H1053       H  0.69144169  0.41981853  0.36625911     0.41200
H1054       H  0.65867430  0.43981953  0.34248819     0.36100
C1055       C  0.77536953  0.04863270  0.25606906    -0.25700
C1056       C  0.75038941  0.01550444  0.24151652    -0.13700
C1057       C  0.72551570  0.48272342  0.25650802     0.36900
C1058       C  0.72580802  0.48387899  0.28550879    -0.25100
C1059       C  0.75104519  0.01652024  0.30004475    -0.14400
C1060       C  0.77577100  0.04949472  0.28516117     0.38000
N1061       N  0.80068026  0.08460963  0.29954357    -0.88600
H1062       H  0.79440517  0.07420517  0.24475657     0.19100
H1063       H  0.70705516  0.45787531  0.29679256     0.19100
N1064       N  0.70108583  0.44658668  0.24239735    -0.87600
H1065       H  0.82887020  0.07668515  0.29350678     0.36500
H1066       H  0.79413835  0.12222328  0.29322586     0.41600
H1067       H  0.70804663  0.40930939  0.24903925     0.41200
H1068       H  0.67276567  0.45406770  0.24828563     0.36100
C1069       C  0.89780756  0.04814960  0.14431130    -0.25700
C1070       C  0.91938242  0.50217566  0.14292426    -0.13700
C1071       C  0.89873425  0.45470112  0.14625559     0.36900
C1072       C  0.85839825  0.45446300  0.14513489    -0.25100
C1073       C  0.83697031  0.50023983  0.14275745    -0.14400
C1074       C  0.85731443  0.04774400  0.14526043     0.38000
N1075       N  0.83702266  0.09557071  0.14926222    -0.88600
H1076       H  0.91245593  0.08496111  0.14603306     0.19100
H1077       H  0.84377434  0.41776387  0.14760125     0.19100
N1078       N  0.91690987  0.40616306  0.15234614    -0.87600
H1079       H  0.85603928  0.12698596  0.14989749     0.36500
H1080       H  0.82373869  0.09417110  0.16862824     0.41600
H1081       H  0.94629635  0.40958023  0.15559727     0.41200
H1082       H  0.91246173  0.38101634  0.13563967     0.36100
C1083       C  0.64768583  0.45412359  0.14370298    -0.25700
C1084       C  0.66938532  0.49989565  0.14131991    -0.13700
C1085       C  0.64947990  0.04748170  0.14405458     0.36900
C1086       C  0.60902906  0.04796383  0.14369453    -0.25100
C1087       C  0.58710363  0.50207563  0.14241503    -0.14400
C1088       C  0.60741306  0.45450096  0.14543159     0.38000
N1089       N  0.58903087  0.40611040  0.15205597    -0.88600
H1090       H  0.66208784  0.41735873  0.14584433     0.19100
H1091       H  0.59473161  0.08475578  0.14589066     0.19100
N1092       N  0.67018829  0.09534974  0.14764358    -0.87600
H1093       H  0.59306479  0.38047112  0.13552129     0.36500
H1094       H  0.55973240  0.40960932  0.15566053     0.41600
H1095       H  0.68372931  0.09429925  0.16687683     0.41200
H1096       H  0.65143016  0.12682382  0.14832024     0.36100
C1097       C  0.52733245  0.03395152  0.25520670    -0.25700
C1098       C  0.00371880  0.99724894  0.24198406    -0.13700
C1099       C  0.98001466  0.46482262  0.25807878     0.36900
C1100       C  0.97967160  0.47056345  0.28701345    -0.25100
C1101       C  0.00310977  0.00739620  0.30027530    -0.14400
C1102       C  0.52712574  0.03954804  0.28419575     0.38000
N1103       N  0.55061394  0.07830592  0.29734618    -0.88600
H1104       H  0.54534822  0.05901569  0.24277404     0.19100
H1105       H  0.96176217  0.44529942  0.29940774     0.19100
N1106       N  0.95707189  0.42543509  0.24495538    -0.87600
H1107       H  0.56653234  0.09878768  0.28262889     0.36500
H1108       H  0.53227263  0.10497893  0.30684511     0.41600
H1109       H  0.97579868  0.39913093  0.23555216     0.41200
H1110       H  0.94137694  0.40465868  0.25967923     0.36100
C1111       C  0.54281904  0.00505455  0.64069313     0.30700
C1112       C  0.96371168  0.50494816  0.64085523     0.30700
C1113       C  0.52327157  0.49468580  0.66847757    -0.05500
C1114       C  0.52372678  0.05677064  0.63176971    -0.06300
C1115       C  0.52303663  0.46629028  0.62083592    -0.06200
C1116       C  0.98350014  0.49446322  0.66858098    -0.05500
C1117       C  0.98299796  0.05641270  0.63164557    -0.06300
C1118       C  0.98301413  0.46660718  0.62074622    -0.08000
C1119       C  0.97194820  0.49393068  0.69587248    -0.31600
N1120       N  0.00363169  0.99354906  0.71223169     0.14900
C1121       C  0.53513645  0.99471152  0.69566233    -0.31600
H1122       H  0.56444951  0.99788665  0.70286943     0.16900
C1123       C  0.97213639  0.09157139  0.61156327    -0.30600
N1124       N  0.50355505  0.11562597  0.60125105     0.13600
C1125       C  0.53496564  0.09347387  0.61241785    -0.30600
C1126       C  0.97113550  0.43073290  0.60126210    -0.30900
N1127       N  0.00262338  0.40739679  0.59047011     0.14100
H1128       H  0.94183262  0.42124963  0.59582064     0.16800
C1129       C  0.53439426  0.42925003  0.60188047    -0.30900
H1130       H  0.56355723  0.41893543  0.59660232     0.16800
H1131       H  0.56372240  0.09940174  0.60453843     0.16800
H1132       H  0.94273263  0.49721360  0.70329784     0.16800
H1133       H  0.94354630  0.09624197  0.60327018     0.16800
C1134       C  0.79267950  0.99800055  0.64074000     0.30700
C1135       C  0.71360377  0.49762735  0.63986049     0.30700
C1136       C  0.77242216  0.50837805  0.66837794    -0.05500
C1137       C  0.77352018  0.03730053  0.62116047    -0.06300
C1138       C  0.77349777  0.44637601  0.63107013    -0.06200
C1139       C  0.73263773  0.50816908  0.66785845    -0.05500
C1140       C  0.73346848  0.03650792  0.62058240    -0.06300
C1141       C  0.73285214  0.44651978  0.63045591    -0.06200
C1142       C  0.72009008  0.51215356  0.69478789    -0.31600
N1143       N  0.75115667  0.01456762  0.71169867     0.14900
C1144       C  0.78329392  0.01247463  0.69573375    -0.31600
H1145       H  0.81236133  0.01129096  0.70355351     0.16900
C1146       C  0.72193615  0.07185419  0.60112687    -0.30600
N1147       N  0.75352275  0.09578016  0.59092381     0.13600
C1148       C  0.78517721  0.07459618  0.60251740    -0.30600
C1149       C  0.72213601  0.41123605  0.61015103    -0.30900
N1150       N  0.75367239  0.38744347  0.59996948     0.14100
H1151       H  0.69356657  0.40603295  0.60182365     0.16800
C1152       C  0.78497612  0.40964370  0.61168867    -0.30900
H1153       H  0.81396986  0.40341060  0.60439122     0.16800
H1154       H  0.81438938  0.08535424  0.59745159     0.16800
H1155       H  0.69048142  0.51190806  0.70157953     0.16800
H1156       H  0.69274064  0.08050874  0.59518514     0.16800
C1157       C  0.96269541  0.49728333  0.90161151     0.30700
C1158       C  0.54195926  0.99704280  0.90221219     0.30700
C1159       C  0.98295115  0.50479334  0.87360171    -0.05500
C1160       C  0.98195558  0.03825568  0.92024984    -0.06300
C1161       C  0.98173069  0.44759307  0.91254052    -0.06200
C1162       C  0.52297550  0.50528174  0.87376042    -0.05500
C1163       C  0.52203771  0.04003100  0.91944606    -0.06300
C1164       C  0.52199762  0.44714403  0.91222491    -0.06200
C1165       C  0.53458626  0.00990882  0.84651950    -0.31600
N1166       N  0.00300020  0.01057933  0.83006280     0.14900
C1167       C  0.97136397  0.50744517  0.84644090    -0.31600
H1168       H  0.94208550  0.50548682  0.83905463     0.16900
C1169       C  0.53290610  0.08242229  0.93516605    -0.30600
N1170       N  0.50133428  0.10242031  0.94757087     0.13600
C1171       C  0.97006138  0.07555985  0.93885686    -0.30600
C1172       C  0.53363743  0.40786693  0.92946620    -0.30900
N1173       N  0.00219180  0.38628622  0.94124749     0.14100
H1174       H  0.56288558  0.39934027  0.93533628     0.16800
C1175       C  0.97070158  0.41140106  0.93202919    -0.30900
H1176       H  0.94211031  0.40608540  0.94035857     0.16800
H1177       H  0.94091614  0.08288691  0.94549869     0.16800
H1178       H  0.56379077  0.01029529  0.83893725     0.16800
H1179       H  0.56170802  0.09726793  0.93801349     0.16800
C1180       C  0.71268254  0.49447680  0.90147299     0.30700
C1181       C  0.79188810  0.99466833  0.90074174     0.30700
C1182       C  0.73206394  0.50173643  0.87304576    -0.05500
C1183       C  0.73255197  0.03848685  0.91808508    -0.06300
C1184       C  0.73205766  0.44612413  0.91327427    -0.06200
C1185       C  0.77200620  0.50068735  0.87268811    -0.05500
C1186       C  0.77280898  0.03832789  0.91791253    -0.06300
C1187       C  0.77231345  0.44615955  0.91305209    -0.06200
C1188       C  0.78361377  0.00808284  0.84571692    -0.31600
N1189       N  0.75189218  0.01434412  0.82979080     0.14900
C1190       C  0.72045149  0.51167027  0.84636224    -0.31600
H1191       H  0.69129207  0.51686062  0.83934840     0.16900
C1192       C  0.78474668  0.07921735  0.93440033    -0.30600
N1193       N  0.75325092  0.10420784  0.94406837     0.13600
C1194       C  0.72145450  0.08019829  0.93411006    -0.30600
C1195       C  0.78349710  0.41201169  0.93342824    -0.30900
N1196       N  0.75198822  0.39035195  0.94505020     0.14100
H1197       H  0.81245418  0.40621170  0.94081872     0.16800
C1198       C  0.72050501  0.41209529  0.93370935    -0.30900
H1199       H  0.69140035  0.40579853  0.94084338     0.16800
H1200       H  0.69247688  0.09268357  0.93843866     0.16800
H1201       H  0.81287360  0.00780029  0.83817315     0.16800
H1202       H  0.81397198  0.08893546  0.93995725     0.16800
O1203       O  0.97971986  0.35353082  0.98321008    -0.77800
C1204       C  0.89866291  0.25024196  0.52156287     0.83200
O1205       O  0.52495936  0.32631720  0.57644305    -0.79000
O1206       O  0.98189517  0.14532830  0.55850386    -0.80400
O1207       O  0.52503259  0.18091067  0.96466552    -0.80200
O1208       O  0.52633087  0.31123344  0.96133184    -0.78900
Zn1209     Zn  0.97079253  0.31456584  0.51885823     1.55700
O1210       O  0.97889307  0.14074383  0.98831583    -0.80300
Cd1211     Cd  0.53451618  0.24843703  0.98704710     1.59700
Cd1212     Cd  0.53378920  0.25700925  0.55549256     1.59600
O1213       O  0.59049663  0.24884702  0.99838325    -0.80300
O1214       O  0.00227650  0.25280123  0.52110874    -1.90800
Cd1215     Cd  0.97155646  0.18754260  0.52292449     1.59900
O1216       O  0.59018448  0.25688922  0.54456104    -0.80200
O1217       O  0.91547147  0.20702109  0.52376981    -0.78900
C1218       C  0.00243718  0.36405117  0.57182108     0.83700
C1219       C  0.00271741  0.34861710  0.96286004     0.83300
O1220       O  0.91617281  0.29323466  0.51929501    -0.77800
C1221       C  0.50161314  0.14333558  0.96768156     0.84100
O1222       O  0.97979264  0.36403267  0.55113629    -0.77900
C1223       C  0.60745814  0.25289757  0.52150754     0.84300
C1224       C  0.50358080  0.15297421  0.57933577     0.84600
O1225       O  0.52487601  0.19320683  0.58135767    -0.80300
O1226       O  0.66713061  0.29351152  0.52294285    -0.77800
C1227       C  0.75402255  0.34902210  0.57834515     0.83200
O1228       O  0.77489458  0.31317128  0.96311335    -0.79000
O1229       O  0.84030181  0.24766782  0.54443208    -0.80400
O1230       O  0.72905235  0.13723203  0.55218776    -0.80200
O1231       O  0.66414754  0.20711498  0.51974164    -0.78900
Zn1232     Zn  0.72241416  0.31278199  0.52203709     1.55700
O1233       O  0.77608996  0.17596912  0.57574600    -0.80300
Cd1234     Cd  0.71981231  0.18583966  0.51917180     1.59700
Cd1235     Cd  0.78478376  0.24835641  0.98683175     1.59600
O1236       O  0.72823713  0.14281557  0.98368798    -0.80300
O1237       O  0.75235676  0.24928610  0.52085247    -1.90800
Cd1238     Cd  0.78403944  0.24555666  0.55513181     1.59900
O1239       O  0.77750296  0.18154001  0.96286112    -0.80200
O1240       O  0.77490945  0.30893977  0.58114341    -0.78900
C1241       C  0.75253302  0.35166624  0.96617272     0.83700
C1242       C  0.64847135  0.25120472  0.52153620     0.83300
O1243       O  0.73313131  0.35539793  0.55696762    -0.77800
C1244       C  0.75302024  0.13814351  0.57201612     0.84100
O1245       O  0.73085345  0.35636280  0.98734960    -0.77900
C1246       C  0.75298170  0.14487029  0.96433908     0.84300
C1247       C  0.85766334  0.25009007  0.52138961     0.84600
O1248       O  0.84080891  0.25117539  0.99815508    -0.80300
C1249       C  0.89821660  0.45072519  0.89703674    -0.25700
C1250       C  0.91839952  0.49796133  0.89931721    -0.13700
C1251       C  0.89657131  0.04408792  0.89574875     0.36900
C1252       C  0.85622842  0.04176193  0.89665237    -0.25100
C1253       C  0.83616902  0.49458567  0.89887578    -0.14400
C1254       C  0.85785073  0.44862799  0.89549252     0.38000
N1255       N  0.83923143  0.40032425  0.88896490    -0.88600
H1256       H  0.91397481  0.41497949  0.89490531     0.19100
H1257       H  0.84037658  0.07743589  0.89442453     0.19100
N1258       N  0.91353722  0.09341951  0.88927634    -0.87600
H1259       H  0.85922317  0.37045949  0.88693886     0.36500
H1260       H  0.82615850  0.40439468  0.86965533     0.41600
H1261       H  0.94287338  0.09119073  0.88544359     0.41200
H1262       H  0.90894105  0.11854739  0.90595577     0.36100
C1263       C  0.64842652  0.00637943  0.92586833    -0.25700
C1264       C  0.66835668  0.49075418  0.90193727    -0.13700
C1265       C  0.64623777  0.46359445  0.88167396     0.36900
C1266       C  0.60600750  0.46780351  0.88193694    -0.25100
C1267       C  0.58626328  0.49371784  0.90328590    -0.14400
C1268       C  0.60803391  0.00578417  0.92732913     0.38000
N1269       N  0.58969568  0.01366862  0.95366861    -0.88600
H1270       H  0.66438091  0.01547889  0.94439955     0.19100
H1271       H  0.58995392  0.44720286  0.86620007     0.19100
N1272       N  0.66244579  0.42660247  0.86269127    -0.87600
H1273       H  0.60979236  0.02260607  0.96901477     0.36500
H1274       H  0.57669952  0.97889956  0.95949632     0.41600
H1275       H  0.69144131  0.41981855  0.86625898     0.41200
H1276       H  0.65867412  0.43981982  0.84248803     0.36100
C1277       C  0.77536943  0.04863272  0.75606908    -0.25700
C1278       C  0.75038937  0.01550441  0.74151653    -0.13700
C1279       C  0.72551580  0.48272334  0.75650802     0.36900
C1280       C  0.72580812  0.48387886  0.78550879    -0.25100
C1281       C  0.75104520  0.01652019  0.80004476    -0.14400
C1282       C  0.77577099  0.04949467  0.78516119     0.38000
N1283       N  0.80068038  0.08460943  0.79954357    -0.88600
H1284       H  0.79440501  0.07420523  0.74475655     0.19100
H1285       H  0.70705529  0.45787513  0.79679255     0.19100
N1286       N  0.70108589  0.44658670  0.74239731    -0.87600
H1287       H  0.82887033  0.07668486  0.79350665     0.36500
H1288       H  0.79413852  0.12222315  0.79322594     0.41600
H1289       H  0.70804667  0.40930938  0.74903917     0.41200
H1290       H  0.67276574  0.45406776  0.74828557     0.36100
C1291       C  0.89780752  0.04814953  0.64431127    -0.25700
C1292       C  0.91938242  0.50217569  0.64292429    -0.13700
C1293       C  0.89873428  0.45470114  0.64625557     0.36900
C1294       C  0.85839826  0.45446301  0.64513483    -0.25100
C1295       C  0.83697028  0.50023982  0.64275742    -0.14400
C1296       C  0.85731443  0.04774403  0.64526038     0.38000
N1297       N  0.83702273  0.09557078  0.64926212    -0.88600
H1298       H  0.91245590  0.08496106  0.64603300     0.19100
H1299       H  0.84377437  0.41776385  0.64760117     0.19100
N1300       N  0.91690992  0.40616310  0.65234610    -0.87600
H1301       H  0.85603975  0.12698641  0.64989754     0.36500
H1302       H  0.82373883  0.09417122  0.66862781     0.41600
H1303       H  0.94629649  0.40958032  0.65559735     0.41200
H1304       H  0.91246185  0.38101639  0.63563960     0.36100
C1305       C  0.64768583  0.45412349  0.64370297    -0.25700
C1306       C  0.66938531  0.49989559  0.64131990    -0.13700
C1307       C  0.64947992  0.04748168  0.64405466     0.36900
C1308       C  0.60902906  0.04796384  0.64369452    -0.25100
C1309       C  0.58710363  0.50207558  0.64241503    -0.14400
C1310       C  0.60741305  0.45450091  0.64543164     0.38000
N1311       N  0.58903077  0.40611039  0.65205596    -0.88600
H1312       H  0.66208782  0.41735859  0.64584428     0.19100
H1313       H  0.59473162  0.08475579  0.64589059     0.19100
N1314       N  0.67018832  0.09534969  0.64764374    -0.87600
H1315       H  0.59306468  0.38047121  0.63552125     0.36500
H1316       H  0.55973225  0.40960941  0.65566043     0.41600
H1317       H  0.68372932  0.09429920  0.66687709     0.41200
H1318       H  0.65143023  0.12682370  0.64832035     0.36100
C1319       C  0.52733244  0.03395139  0.75520671    -0.25700
C1320       C  0.00371877  0.99724885  0.74198407    -0.13700
C1321       C  0.98001458  0.46482274  0.75807879     0.36900
C1322       C  0.97967159  0.47056347  0.78701348    -0.25100
C1323       C  0.00310983  0.00739608  0.80027533    -0.14400
C1324       C  0.52712585  0.03954780  0.78419575     0.38000
N1325       N  0.55061406  0.07830566  0.79734616    -0.88600
H1326       H  0.54534815  0.05901562  0.74277402     0.19100
H1327       H  0.96176224  0.44529938  0.79940778     0.19100
N1328       N  0.95707189  0.42543517  0.74495535    -0.87600
H1329       H  0.56653244  0.09878750  0.78262876     0.36500
H1330       H  0.53227285  0.10497852  0.80684507     0.41600
H1331       H  0.97579877  0.39913106  0.73555224     0.41200
H1332       H  0.94137693  0.40465884  0.75967914     0.36100
C1333       C  0.54281902  0.50505461  0.14069313     0.30700
C1334       C  0.96371172  0.00494821  0.14085521     0.30700
C1335       C  0.52327158  0.99468590  0.16847756    -0.05500
C1336       C  0.52372678  0.55677072  0.13176973    -0.06300
C1337       C  0.52303666  0.96629029  0.12083595    -0.06200
C1338       C  0.98350017  0.99446323  0.16858097    -0.05500
C1339       C  0.98299797  0.55641273  0.13164555    -0.06300
C1340       C  0.98301418  0.96660728  0.12074620    -0.08000
C1341       C  0.97194827  0.99393058  0.19587247    -0.31600
N1342       N  0.00363175  0.49354908  0.21223167     0.14900
C1343       C  0.53513647  0.49471172  0.19566228    -0.31600
H1344       H  0.56444956  0.49788708  0.20286929     0.16900
C1345       C  0.97213644  0.59157138  0.11156320    -0.30600
N1346       N  0.50355512  0.61562590  0.10125100     0.13600
C1347       C  0.53496570  0.59347399  0.11241789    -0.30600
C1348       C  0.97113555  0.93073314  0.10126202    -0.30900
N1349       N  0.00262340  0.90739686  0.09047010     0.14100
H1350       H  0.94183265  0.92124998  0.09582056     0.16800
C1351       C  0.53439432  0.92925000  0.10188053    -0.30900
H1352       H  0.56355730  0.91893535  0.09660244     0.16800
H1353       H  0.56372249  0.59940197  0.10453854     0.16800
H1354       H  0.94273270  0.99721344  0.20329787     0.16800
H1355       H  0.94354637  0.59624206  0.10327011     0.16800
C1356       C  0.79267952  0.49800060  0.14074000     0.30700
C1357       C  0.71360383  0.99762740  0.13986049     0.30700
C1358       C  0.77242223  0.00837812  0.16837794    -0.05500
C1359       C  0.77352022  0.53730062  0.12116047    -0.06300
C1360       C  0.77349783  0.94637604  0.13107014    -0.06200
C1361       C  0.73263779  0.00816921  0.16785844    -0.05500
C1362       C  0.73346852  0.53650796  0.12058239    -0.06300
C1363       C  0.73285222  0.94651980  0.13045595    -0.06200
C1364       C  0.72009011  0.01215360  0.19478785    -0.31600
N1365       N  0.75115667  0.51456756  0.21169866     0.14900
C1366       C  0.78329394  0.51247458  0.19573375    -0.31600
H1367       H  0.81236133  0.51129099  0.20355350     0.16900
C1368       C  0.72193617  0.57185418  0.10112684    -0.30600
N1369       N  0.75352276  0.59578020  0.09092377     0.13600
C1370       C  0.78517723  0.57459618  0.10251733    -0.30600
C1371       C  0.72213607  0.91123599  0.11015111    -0.30900
N1372       N  0.75367243  0.88744346  0.09996948     0.14100
H1373       H  0.69356664  0.90603287  0.10182375     0.16800
C1374       C  0.78497617  0.90964369  0.11168870    -0.30900
H1375       H  0.81396991  0.90341065  0.10439123     0.16800
H1376       H  0.81438940  0.58535418  0.09745146     0.16800
H1377       H  0.69048142  0.01190808  0.20157944     0.16800
H1378       H  0.69274064  0.58050859  0.09518512     0.16800
C1379       C  0.96269540  0.99728333  0.40161149     0.30700
C1380       C  0.54195925  0.49704273  0.40221215     0.30700
C1381       C  0.98295114  0.00479335  0.37360169    -0.05500
C1382       C  0.98195554  0.53825569  0.42024979    -0.06300
C1383       C  0.98173066  0.94759302  0.41254046    -0.06200
C1384       C  0.52297553  0.00528169  0.37376037    -0.05500
C1385       C  0.52203769  0.54003093  0.41944604    -0.06300
C1386       C  0.52199757  0.94714392  0.41222481    -0.06200
C1387       C  0.53458622  0.50990873  0.34651942    -0.31600
N1388       N  0.00300018  0.51057931  0.33006277     0.14900
C1389       C  0.97136392  0.00744513  0.34644091    -0.31600
H1390       H  0.94208542  0.00548678  0.33905471     0.16900
C1391       C  0.53290608  0.58242219  0.43516604    -0.30600
N1392       N  0.50133425  0.60242032  0.44757081     0.13600
C1393       C  0.97006131  0.57555994  0.43885674    -0.30600
C1394       C  0.53363736  0.90786687  0.42946613    -0.30900
N1395       N  0.00219176  0.88628613  0.44124741     0.14100
H1396       H  0.56288550  0.89934029  0.43533624     0.16800
C1397       C  0.97070158  0.91140101  0.43202915    -0.30900
H1398       H  0.94211033  0.90608544  0.44035860     0.16800
H1399       H  0.94091605  0.58288702  0.44549854     0.16800
H1400       H  0.56379070  0.51029523  0.33893709     0.16800
H1401       H  0.56170802  0.59726776  0.43801348     0.16800
C1402       C  0.71268249  0.99447675  0.40147299     0.30700
C1403       C  0.79188810  0.49466830  0.40074176     0.30700
C1404       C  0.73206393  0.00173639  0.37304576    -0.05500
C1405       C  0.73255197  0.53848677  0.41808511    -0.06300
C1406       C  0.73205763  0.94612408  0.41327426    -0.06200
C1407       C  0.77200617  0.00068735  0.37268812    -0.05500
C1408       C  0.77280899  0.53832782  0.41791257    -0.06300
C1409       C  0.77231342  0.94615957  0.41305210    -0.06200
C1410       C  0.78361379  0.50808280  0.34571692    -0.31600
N1411       N  0.75189219  0.51434403  0.32979078     0.14900
C1412       C  0.72045152  0.01167021  0.34636222    -0.31600
H1413       H  0.69129209  0.01686058  0.33934836     0.16900
C1414       C  0.78474668  0.57921728  0.43440036    -0.30600
N1415       N  0.75325089  0.60420777  0.44406836     0.13600
C1416       C  0.72145448  0.58019817  0.43411009    -0.30600
C1417       C  0.78349709  0.91201176  0.43342826    -0.30900
N1418       N  0.75198822  0.89035200  0.44505022     0.14100
H1419       H  0.81245418  0.90621177  0.44081872     0.16800
C1420       C  0.72050498  0.91209516  0.43370932    -0.30900
H1421       H  0.69140031  0.90579823  0.44084329     0.16800
H1422       H  0.69247687  0.59268345  0.43843867     0.16800
H1423       H  0.81287362  0.50780037  0.33817316     0.16800
H1424       H  0.81397199  0.58893547  0.43995726     0.16800
O1425       O  0.97972000  0.85353102  0.48321010    -0.77800
C1426       C  0.89866289  0.75024196  0.02156294     0.83200
O1427       O  0.52495937  0.82631711  0.07644316    -0.79000
O1428       O  0.98189526  0.64532825  0.05850380    -0.80400
O1429       O  0.52503258  0.68091077  0.46466536    -0.80200
O1430       O  0.52633082  0.81123342  0.46133178    -0.78900
Zn1431     Zn  0.97079259  0.81456581  0.01885827     1.55700
O1432       O  0.97889296  0.64074398  0.48831566    -0.80300
Cd1433     Cd  0.53451629  0.74843713  0.48704700     1.59700
Cd1434     Cd  0.53378932  0.75700918  0.05549262     1.59600
O1435       O  0.59049676  0.74884698  0.49838322    -0.80300
O1436       O  0.00227659  0.75280135  0.02110884    -1.90800
Cd1437     Cd  0.97155656  0.68754277  0.02292455     1.59900
O1438       O  0.59018460  0.75688916  0.04456105    -0.80200
O1439       O  0.91547147  0.70702109  0.02376987    -0.78900
C1440       C  0.00243712  0.86405114  0.07182113     0.83700
C1441       C  0.00271743  0.84861713  0.46286001     0.83300
O1442       O  0.91617283  0.79323464  0.01929507    -0.77800
C1443       C  0.50161312  0.64333567  0.46768145     0.84100
O1444       O  0.97979257  0.86403263  0.05113635    -0.77900
C1445       C  0.60745820  0.75289758  0.02150753     0.84300
C1446       C  0.50358083  0.65297416  0.07933573     0.84600
O1447       O  0.52487610  0.69320670  0.08135764    -0.80300
O1448       O  0.66713058  0.79351161  0.02294290    -0.77800
C1449       C  0.75402251  0.84902218  0.07834510     0.83200
O1450       O  0.77489473  0.81317139  0.46311336    -0.79000
O1451       O  0.84030170  0.74766801  0.04443207    -0.80400
O1452       O  0.72905242  0.63723216  0.05218772    -0.80200
O1453       O  0.66414764  0.70711510  0.01974149    -0.78900
Zn1454     Zn  0.72241408  0.81278192  0.02203712     1.55700
O1455       O  0.77609003  0.67596917  0.07574595    -0.80300
Cd1456     Cd  0.71981241  0.68583983  0.01917182     1.59700
Cd1457     Cd  0.78478369  0.74835639  0.48683175     1.59600
O1458       O  0.72823702  0.64281556  0.48368787    -0.80300
O1459       O  0.75235674  0.74928615  0.02085244    -1.90800
Cd1460     Cd  0.78403935  0.74555666  0.05513171     1.59900
O1461       O  0.77750285  0.68154005  0.46286103    -0.80200
O1462       O  0.77490940  0.80893983  0.08114328    -0.78900
C1463       C  0.75253311  0.85166628  0.46617273     0.83700
C1464       C  0.64847138  0.75120478  0.02153613     0.83300
O1465       O  0.73313119  0.85539803  0.05696761    -0.77800
C1466       C  0.75302028  0.63814359  0.07201609     0.84100
O1467       O  0.73085354  0.85636277  0.48734961    -0.77900
C1468       C  0.75298161  0.64487031  0.46433899     0.84300
C1469       C  0.85766330  0.75009014  0.02138963     0.84600
O1470       O  0.84080888  0.75117562  0.49815502    -0.80300
C1471       C  0.89821656  0.95072527  0.39703673    -0.25700
C1472       C  0.91839949  0.99796138  0.39931724    -0.13700
C1473       C  0.89657126  0.54408791  0.39574880     0.36900
C1474       C  0.85622838  0.54176191  0.39665242    -0.25100
C1475       C  0.83616898  0.99458572  0.39887580    -0.14400
C1476       C  0.85785072  0.94862806  0.39549247     0.38000
N1477       N  0.83923143  0.90032427  0.38896496    -0.88600
H1478       H  0.91397481  0.91497958  0.39490531     0.19100
H1479       H  0.84037652  0.57743586  0.39442456     0.19100
N1480       N  0.91353713  0.59341950  0.38927638    -0.87600
H1481       H  0.85922337  0.87045929  0.38693893     0.36500
H1482       H  0.82615850  0.90439446  0.36965558     0.41600
H1483       H  0.94287327  0.59119074  0.38544359     0.41200
H1484       H  0.90894096  0.61854736  0.40595582     0.36100
C1485       C  0.64842649  0.50637933  0.42586834    -0.25700
C1486       C  0.66835661  0.99075410  0.40193728    -0.13700
C1487       C  0.64623779  0.96359434  0.38167399     0.36900
C1488       C  0.60600749  0.96780342  0.38193691    -0.25100
C1489       C  0.58626325  0.99371772  0.40328588    -0.14400
C1490       C  0.60803388  0.50578407  0.42732909     0.38000
N1491       N  0.58969567  0.51366858  0.45366857    -0.88600
H1492       H  0.66438086  0.51547881  0.44439956     0.19100
H1493       H  0.58995394  0.94720280  0.36620003     0.19100
N1494       N  0.66244589  0.92660233  0.36269135    -0.87600
H1495       H  0.60979229  0.52260596  0.46901468     0.36500
H1496       H  0.57669952  0.47889954  0.45949627     0.41600
H1497       H  0.69144177  0.91981843  0.36625918     0.41200
H1498       H  0.65867435  0.93981947  0.34248833     0.36100
C1499       C  0.77536950  0.54863267  0.25606906    -0.25700
C1500       C  0.75038937  0.51550442  0.24151652    -0.13700
C1501       C  0.72551576  0.98272344  0.25650802     0.36900
C1502       C  0.72580804  0.98387901  0.28550879    -0.25100
C1503       C  0.75104518  0.51652021  0.30004475    -0.14400
C1504       C  0.77577104  0.54949462  0.28516117     0.38000
N1505       N  0.80068053  0.58460921  0.29954356    -0.88600
H1506       H  0.79440517  0.57420511  0.24475657     0.19100
H1507       H  0.70705518  0.95787532  0.29679255     0.19100
N1508       N  0.70108600  0.94658659  0.24239733    -0.87600
H1509       H  0.82887072  0.57668450  0.29350653     0.36500
H1510       H  0.79413875  0.62222255  0.29322614     0.41600
H1511       H  0.70804689  0.90930935  0.24903927     0.41200
H1512       H  0.67276581  0.95406748  0.24828555     0.36100
C1513       C  0.89780753  0.54814955  0.14431130    -0.25700
C1514       C  0.91938245  0.00217574  0.14292426    -0.13700
C1515       C  0.89873438  0.95470121  0.14625560     0.36900
C1516       C  0.85839833  0.95446299  0.14513489    -0.25100
C1517       C  0.83697035  0.00023982  0.14275744    -0.14400
C1518       C  0.85731441  0.54774399  0.14526043     0.38000
N1519       N  0.83702265  0.59557070  0.14926220    -0.88600
H1520       H  0.91245590  0.58496106  0.14603305     0.19100
H1521       H  0.84377447  0.91776384  0.14760124     0.19100
N1522       N  0.91691009  0.90616325  0.15234620    -0.87600
H1523       H  0.85603935  0.62698605  0.14989746     0.36500
H1524       H  0.82373880  0.59417113  0.16862812     0.41600
H1525       H  0.94629696  0.90958057  0.15559728     0.41200
H1526       H  0.91246200  0.88101667  0.13563996     0.36100
C1527       C  0.64768591  0.95412359  0.14370299    -0.25700
C1528       C  0.66938536  0.99989568  0.14131988    -0.13700
C1529       C  0.64947993  0.54748169  0.14405468     0.36900
C1530       C  0.60902906  0.54796388  0.14369458    -0.25100
C1531       C  0.58710367  0.00207559  0.14241503    -0.14400
C1532       C  0.60741312  0.95450094  0.14543160     0.38000
N1533       N  0.58903092  0.90611039  0.15205598    -0.88600
H1534       H  0.66208795  0.91735876  0.14584438     0.19100
H1535       H  0.59473165  0.58475586  0.14589066     0.19100
N1536       N  0.67018841  0.59534967  0.14764362    -0.87600
H1537       H  0.59306480  0.88047112  0.13552129     0.36500
H1538       H  0.55973243  0.90960941  0.15566055     0.41600
H1539       H  0.68372952  0.59429928  0.16687692     0.41200
H1540       H  0.65143039  0.62682376  0.14832019     0.36100
C1541       C  0.52733244  0.53395138  0.25520671    -0.25700
C1542       C  0.00371885  0.49724880  0.24198406    -0.13700
C1543       C  0.98001464  0.96482277  0.25807878     0.36900
C1544       C  0.97967161  0.97056349  0.28701345    -0.25100
C1545       C  0.00310984  0.50739609  0.30027530    -0.14400
C1546       C  0.52712584  0.53954777  0.28419576     0.38000
N1547       N  0.55061392  0.57830581  0.29734618    -0.88600
H1548       H  0.54534811  0.55901565  0.24277403     0.19100
H1549       H  0.96176221  0.94529940  0.29940773     0.19100
N1550       N  0.95707181  0.92543535  0.24495536    -0.87600
H1551       H  0.56653226  0.59878763  0.28262887     0.36500
H1552       H  0.53227247  0.60497872  0.30684504     0.41600
H1553       H  0.97579853  0.89913126  0.23555212     0.41200
H1554       H  0.94137687  0.90465895  0.25967918     0.36100
C1555       C  0.54281903  0.50505453  0.64069313     0.30700
C1556       C  0.96371168  0.00494820  0.64085523     0.30700
C1557       C  0.52327159  0.99468579  0.66847757    -0.05500
C1558       C  0.52372678  0.55677060  0.63176971    -0.06300
C1559       C  0.52303662  0.96629033  0.62083590    -0.06200
C1560       C  0.98350016  0.99446321  0.66858098    -0.05500
C1561       C  0.98299795  0.55641265  0.63164555    -0.06300
C1562       C  0.98301412  0.96660726  0.62074620    -0.08000
C1563       C  0.97194824  0.99393066  0.69587248    -0.31600
N1564       N  0.00363163  0.49354911  0.71223169     0.14900
C1565       C  0.53513644  0.49471155  0.69566232    -0.31600
H1566       H  0.56444952  0.49788667  0.70286940     0.16900
C1567       C  0.97213636  0.59157137  0.61156326    -0.30600
N1568       N  0.50355507  0.61562595  0.60125106     0.13600
C1569       C  0.53496566  0.59347385  0.61241787    -0.30600
C1570       C  0.97113548  0.93073294  0.60126210    -0.30900
N1571       N  0.00262335  0.90739678  0.59047012     0.14100
H1572       H  0.94183258  0.92124965  0.59582068     0.16800
C1573       C  0.53439425  0.92925003  0.60188048    -0.30900
H1574       H  0.56355722  0.91893542  0.59660234     0.16800
H1575       H  0.56372245  0.59940176  0.60453848     0.16800
H1576       H  0.94273268  0.99721360  0.70329785     0.16800
H1577       H  0.94354627  0.59624195  0.60327018     0.16800
C1578       C  0.79267948  0.49800056  0.64074000     0.30700
C1579       C  0.71360380  0.99762734  0.63986049     0.30700
C1580       C  0.77242219  0.00837807  0.66837794    -0.05500
C1581       C  0.77352019  0.53730060  0.62116050    -0.06300
C1582       C  0.77349781  0.94637598  0.63107014    -0.06200
C1583       C  0.73263776  0.00816912  0.66785845    -0.05500
C1584       C  0.73346847  0.53650796  0.62058241    -0.06300
C1585       C  0.73285218  0.94651976  0.63045593    -0.06200
C1586       C  0.72009009  0.01215359  0.69478788    -0.31600
N1587       N  0.75115667  0.51456760  0.71169867     0.14900
C1588       C  0.78329391  0.51247464  0.69573374    -0.31600
H1589       H  0.81236132  0.51129107  0.70355348     0.16900
C1590       C  0.72193616  0.57185418  0.60112686    -0.30600
N1591       N  0.75352277  0.59578014  0.59092380     0.13600
C1592       C  0.78517724  0.57459621  0.60251740    -0.30600
C1593       C  0.72213607  0.91123601  0.61015105    -0.30900
N1594       N  0.75367246  0.88744345  0.59996947     0.14100
H1595       H  0.69356664  0.90603283  0.60182369     0.16800
C1596       C  0.78497618  0.90964368  0.61168867    -0.30900
H1597       H  0.81396992  0.90341060  0.60439121     0.16800
H1598       H  0.81438941  0.58535424  0.59745156     0.16800
H1599       H  0.69048143  0.01190809  0.70157950     0.16800
H1600       H  0.69274063  0.58050869  0.59518511     0.16800
C1601       C  0.96269542  0.99728331  0.90161153     0.30700
C1602       C  0.54195925  0.49704283  0.90221218     0.30700
C1603       C  0.98295117  0.00479330  0.87360173    -0.05500
C1604       C  0.98195557  0.53825567  0.92024983    -0.06300
C1605       C  0.98173070  0.94759305  0.91254052    -0.06200
C1606       C  0.52297552  0.00528175  0.87376043    -0.05500
C1607       C  0.52203768  0.54003101  0.91944606    -0.06300
C1608       C  0.52199761  0.94714401  0.91222491    -0.06200
C1609       C  0.53458623  0.50990882  0.84651948    -0.31600
N1610       N  0.00300020  0.51057939  0.83006279     0.14900
C1611       C  0.97136400  0.00744499  0.84644092    -0.31600
H1612       H  0.94208553  0.00548651  0.83905467     0.16900
C1613       C  0.53290607  0.58242228  0.93516606    -0.30600
N1614       N  0.50133427  0.60242027  0.94757090     0.13600
C1615       C  0.97006137  0.57555982  0.93885685    -0.30600
C1616       C  0.53363740  0.90786690  0.92946620    -0.30900
N1617       N  0.00219184  0.88628620  0.94124749     0.14100
H1618       H  0.56288555  0.89934024  0.93533627     0.16800
C1619       C  0.97070163  0.91140103  0.93202921    -0.30900
H1620       H  0.94211037  0.90608539  0.94035863     0.16800
H1621       H  0.94091612  0.58288686  0.94549868     0.16800
H1622       H  0.56379073  0.51029534  0.83893721     0.16800
H1623       H  0.56170799  0.59726794  0.93801347     0.16800
C1624       C  0.71268253  0.99447680  0.90147300     0.30700
C1625       C  0.79188811  0.49466833  0.90074174     0.30700
C1626       C  0.73206395  0.00173646  0.87304577    -0.05500
C1627       C  0.73255198  0.53848684  0.91808508    -0.06300
C1628       C  0.73205765  0.94612411  0.91327428    -0.06200
C1629       C  0.77200619  0.00068737  0.87268811    -0.05500
C1630       C  0.77280897  0.53832788  0.91791253    -0.06300
C1631       C  0.77231344  0.94615954  0.91305208    -0.06200
C1632       C  0.78361379  0.50808285  0.84571693    -0.31600
N1633       N  0.75189218  0.51434410  0.82979080     0.14900
C1634       C  0.72045150  0.01167029  0.84636225    -0.31600
H1635       H  0.69129207  0.01686063  0.83934841     0.16900
C1636       C  0.78474667  0.57921732  0.93440032    -0.30600
N1637       N  0.75325092  0.60420781  0.94406837     0.13600
C1638       C  0.72145451  0.58019828  0.93411006    -0.30600
C1639       C  0.78349710  0.91201168  0.93342823    -0.30900
N1640       N  0.75198825  0.89035190  0.94505020     0.14100
H1641       H  0.81245418  0.90621172  0.94081871     0.16800
C1642       C  0.72050502  0.91209524  0.93370937    -0.30900
H1643       H  0.69140036  0.90579847  0.94084341     0.16800
H1644       H  0.69247690  0.59268357  0.93843867     0.16800
H1645       H  0.81287363  0.50780038  0.83817318     0.16800
H1646       H  0.81397198  0.58893543  0.93995725     0.16800
O1647       O  0.97971991  0.85353082  0.98321008    -0.77800
C1648       C  0.89866291  0.75024202  0.52156285     0.83200
O1649       O  0.52495938  0.82631718  0.57644305    -0.79000
O1650       O  0.98189529  0.64532824  0.55850381    -0.80400
O1651       O  0.52503256  0.68091065  0.96466552    -0.80200
O1652       O  0.52633086  0.81123337  0.96133180    -0.78900
Zn1653     Zn  0.97079251  0.81456591  0.51885822     1.55700
O1654       O  0.97889305  0.64074380  0.98831583    -0.80300
Cd1655     Cd  0.53451615  0.74843701  0.98704710     1.59700
Cd1656     Cd  0.53378919  0.75700923  0.55549256     1.59600
O1657       O  0.59049659  0.74884700  0.99838325    -0.80300
O1658       O  0.00227647  0.75280133  0.52110873    -1.90800
Cd1659     Cd  0.97155647  0.68754263  0.52292449     1.59900
O1660       O  0.59018449  0.75688926  0.54456102    -0.80200
O1661       O  0.91547147  0.70702114  0.52376981    -0.78900
C1662       C  0.00243715  0.86405115  0.57182109     0.83700
C1663       C  0.00271746  0.84861709  0.96286005     0.83300
O1664       O  0.91617283  0.79323471  0.51929500    -0.77800
C1665       C  0.50161311  0.64333556  0.96768157     0.84100
O1666       O  0.97979260  0.86403266  0.55113630    -0.77900
C1667       C  0.60745824  0.75289762  0.52150754     0.84300
C1668       C  0.50358085  0.65297420  0.57933577     0.84600
O1669       O  0.52487613  0.69320675  0.58135764    -0.80300
O1670       O  0.66713066  0.79351168  0.52294287    -0.77800
C1671       C  0.75402256  0.84902208  0.57834515     0.83200
O1672       O  0.77489482  0.81317128  0.96311331    -0.79000
O1673       O  0.84030177  0.74766775  0.54443201    -0.80400
O1674       O  0.72905235  0.63723200  0.55218776    -0.80200
O1675       O  0.66414773  0.70711514  0.51974164    -0.78900
Zn1676     Zn  0.72241415  0.81278199  0.52203709     1.55700
O1677       O  0.77608994  0.67596912  0.57574599    -0.80300
Cd1678     Cd  0.71981247  0.68583966  0.51917180     1.59700
Cd1679     Cd  0.78478375  0.74835639  0.98683175     1.59600
O1680       O  0.72823710  0.64281554  0.98368797    -0.80300
O1681       O  0.75235678  0.74928611  0.52085247    -1.90800
Cd1682     Cd  0.78403941  0.74555663  0.55513180     1.59900
O1683       O  0.77750293  0.68153999  0.96286112    -0.80200
O1684       O  0.77490943  0.80893973  0.58114340    -0.78900
C1685       C  0.75253317  0.85166614  0.96617271     0.83700
C1686       C  0.64847146  0.75120484  0.52153624     0.83300
O1687       O  0.73313130  0.85539791  0.55696763    -0.77800
C1688       C  0.75302023  0.63814349  0.57201612     0.84100
O1689       O  0.73085360  0.85636256  0.98734960    -0.77900
C1690       C  0.75298169  0.64487026  0.96433908     0.84300
C1691       C  0.85766333  0.75009018  0.52138956     0.84600
O1692       O  0.84080889  0.75117535  0.99815508    -0.80300
C1693       C  0.89821657  0.95072519  0.89703674    -0.25700
C1694       C  0.91839951  0.99796133  0.89931721    -0.13700
C1695       C  0.89657130  0.54408792  0.89574875     0.36900
C1696       C  0.85622842  0.54176192  0.89665237    -0.25100
C1697       C  0.83616902  0.99458567  0.89887578    -0.14400
C1698       C  0.85785070  0.94862800  0.89549252     0.38000
N1699       N  0.83923140  0.90032424  0.88896490    -0.88600
H1700       H  0.91397478  0.91497947  0.89490531     0.19100
H1701       H  0.84037657  0.57743588  0.89442451     0.19100
N1702       N  0.91353720  0.59341951  0.88927634    -0.87600
H1703       H  0.85922314  0.87045947  0.88693886     0.36500
H1704       H  0.82615847  0.90439466  0.86965533     0.41600
H1705       H  0.94287335  0.59119074  0.88544359     0.41200
H1706       H  0.90894102  0.61854737  0.90595577     0.36100
C1707       C  0.64842655  0.50637940  0.92586830    -0.25700
C1708       C  0.66835667  0.99075420  0.90193729    -0.13700
C1709       C  0.64623783  0.96359442  0.88167398     0.36900
C1710       C  0.60600753  0.96780346  0.88193696    -0.25100
C1711       C  0.58626329  0.99371780  0.90328593    -0.14400
C1712       C  0.60803396  0.50578418  0.92732908     0.38000
N1713       N  0.58969576  0.51366872  0.95366854    -0.88600
H1714       H  0.66438095  0.51547886  0.94439953     0.19100
H1715       H  0.58995396  0.94720280  0.86620010     0.19100
N1716       N  0.66244594  0.92660245  0.86269130    -0.87600
H1717       H  0.60979256  0.52260602  0.96901475     0.36500
H1718       H  0.57669959  0.47889994  0.95949619     0.41600
H1719       H  0.69144174  0.91981859  0.86625905     0.41200
H1720       H  0.65867430  0.93981960  0.84248816     0.36100
C1721       C  0.77536946  0.54863271  0.75606908    -0.25700
C1722       C  0.75038943  0.51550436  0.74151653    -0.13700
C1723       C  0.72551575  0.98272336  0.75650802     0.36900
C1724       C  0.72580811  0.98387885  0.78550879    -0.25100
C1725       C  0.75104520  0.51652019  0.80004476    -0.14400
C1726       C  0.77577098  0.54949466  0.78516118     0.38000
N1727       N  0.80068038  0.58460938  0.79954357    -0.88600
H1728       H  0.79440501  0.57420527  0.74475656     0.19100
H1729       H  0.70705529  0.95787513  0.79679256     0.19100
N1730       N  0.70108585  0.94658669  0.74239731    -0.87600
H1731       H  0.82887045  0.57668469  0.79350665     0.36500
H1732       H  0.79413860  0.62222279  0.79322598     0.41600
H1733       H  0.70804665  0.90930936  0.74903916     0.41200
H1734       H  0.67276570  0.95406771  0.74828558     0.36100
C1735       C  0.89780753  0.54814953  0.64431128    -0.25700
C1736       C  0.91938241  0.00217569  0.64292429    -0.13700
C1737       C  0.89873426  0.95470115  0.64625557     0.36900
C1738       C  0.85839824  0.95446301  0.64513483    -0.25100
C1739       C  0.83697028  0.00023982  0.64275742    -0.14400
C1740       C  0.85731443  0.54774402  0.64526038     0.38000
N1741       N  0.83702271  0.59557076  0.64926212    -0.88600
H1742       H  0.91245590  0.58496107  0.64603301     0.19100
H1743       H  0.84377434  0.91776387  0.64760118     0.19100
N1744       N  0.91690989  0.90616310  0.65234610    -0.87600
H1745       H  0.85603971  0.62698642  0.64989754     0.36500
H1746       H  0.82373881  0.59417117  0.66862780     0.41600
H1747       H  0.94629647  0.90958033  0.65559732     0.41200
H1748       H  0.91246181  0.88101638  0.63563960     0.36100
C1749       C  0.64768584  0.95412353  0.64370297    -0.25700
C1750       C  0.66938533  0.99989562  0.64131990    -0.13700
C1751       C  0.64947989  0.54748164  0.64405466     0.36900
C1752       C  0.60902904  0.54796381  0.64369452    -0.25100
C1753       C  0.58710364  0.00207560  0.64241503    -0.14400
C1754       C  0.60741305  0.95450093  0.64543164     0.38000
N1755       N  0.58903076  0.90611040  0.65205595    -0.88600
H1756       H  0.66208785  0.91735865  0.64584427     0.19100
H1757       H  0.59473161  0.58475577  0.64589060     0.19100
N1758       N  0.67018829  0.59534966  0.64764371    -0.87600
H1759       H  0.59306466  0.88047121  0.63552125     0.36500
H1760       H  0.55973224  0.90960941  0.65566043     0.41600
H1761       H  0.68372933  0.59429915  0.66687697     0.41200
H1762       H  0.65143015  0.62682370  0.64832039     0.36100
C1763       C  0.52733247  0.53395144  0.75520670    -0.25700
C1764       C  0.00371874  0.49724894  0.74198407    -0.13700
C1765       C  0.98001461  0.96482263  0.75807880     0.36900
C1766       C  0.97967160  0.97056340  0.78701348    -0.25100
C1767       C  0.00310983  0.50739615  0.80027531    -0.14400
C1768       C  0.52712585  0.53954791  0.78419573     0.38000
N1769       N  0.55061399  0.57830587  0.79734614    -0.88600
H1770       H  0.54534818  0.55901568  0.74277401     0.19100
H1771       H  0.96176224  0.94529931  0.79940778     0.19100
N1772       N  0.95707187  0.92543509  0.74495536    -0.87600
H1773       H  0.56653244  0.59878776  0.78262868     0.36500
H1774       H  0.53227276  0.60497869  0.80684496     0.41600
H1775       H  0.97579863  0.89913104  0.73555219     0.41200
H1776       H  0.94137689  0.90465862  0.75967921     0.36100
loop_ 
_geom_bond_atom_site_label_1 
_geom_bond_atom_site_label_2 
_geom_bond_distance 
_geom_bond_site_symmetry_2 
_ccdc_geom_bond_type 
C1            C4   1.558       .  S
C1          C447   1.529   1_545  S
C1          C449   1.545   1_545  S
C1          C643   1.548       .  S
C2            C6   1.534       .  S
C2            C8   1.540       .  S
C2          C182   1.549       .  S
C2          C451   1.553       .  S
C3          C445   1.529       .  S
C3          C455   1.378       .  A
C3          C894   1.386   1_455  A
C4           C15   1.389       .  A
C4          C895   1.419   1_455  A
C5          C445   1.545       .  S
C5           C19   1.380       .  A
C5          C896   1.395   1_455  A
C6            C9   1.379       .  A
C6          C891   1.386       .  A
C7          C446   1.553       .  S
C7           C13   1.387       .  A
C7          C892   1.419       .  A
C8           C16   1.381       .  A
C8          C893   1.395       .  A
C9           H22   1.082       .  S
C9          N454   1.359       .  A
N10         C453   1.359       .  A
N10         C899   1.358       .  A
N10         C210   1.441       .  S
C11         C447   1.378       .  A
C11          H12   1.083       .  S
C11         N898   1.358       .  A
C13          H23   1.082       .  S
C13         N902   1.352       .  A
N14          C15   1.352       .  A
N14         C901   1.352   1_455  A
N14         C114   1.436       .  S
C15          H21   1.082       .  S
C16          H18   1.082       .  S
C16          N17   1.356       .  A
N17         C907   1.357       .  A
N17         C108   1.434       .  S
C19          H20   1.082       .  S
C19         N905   1.357       .  A
C24          C27   1.546   1_565  S
C24         C470   1.533   1_565  S
C24         C472   1.559       .  S
C24         C629   1.548   1_565  S
C25          C29   1.531       .  S
C25          C31   1.549       .  S
C25         C196   1.544       .  S
C25         C474   1.535       .  S
C26         C468   1.533       .  S
C26          C29   1.387       .  A
C26         C478   1.380       .  A
C27          C38   1.381       .  A
C27          C30   1.396       .  A
C28         C468   1.559       .  S
C28          C42   1.389       .  A
C28          C31   1.417       .  A
C29          C32   1.376       .  A
C30         C469   1.535   1_545  S
C30          C36   1.376       .  A
C31          C39   1.387       .  A
C32          H45   1.082       .  S
C32         N477   1.359       .  A
N33          C34   1.360       .  A
N33         C476   1.359       .  A
N33         C168   1.441       .  S
C34         C470   1.380       .  A
C34          H35   1.082       .  S
C36          H46   1.082       .  S
C36          N37   1.353       .  A
N37          C38   1.357       .  A
N37         C134   1.429       .  S
C38          H44   1.082       .  S
C39          H41   1.082       .  S
C39          N40   1.352       .  A
N40          C42   1.354       .  A
N40         C117   1.438       .  S
C42          H43   1.082       .  S
C47          C49   1.538       .  S
C47          C51   1.543       .  S
C47         C140   1.548       .  S
C47         C494   1.539       .  S
C48          C53   1.550   1_565  S
C48         C496   1.543   1_565  S
C48         C498   1.541       .  S
C48         C601   1.548       .  S
C49          C57   1.376       .  A
C49         C940   1.395       .  A
C50         C491   1.539   1_545  S
C50          C61   1.379       .  A
C50         C941   1.398       .  A
C51          C65   1.383       .  A
C51         C942   1.403       .  A
C52         C492   1.543       .  S
C52         C937   1.395   1_455  A
C52         C499   1.382       .  A
C53          C59   1.381       .  A
C53         C938   1.398   1_455  A
C54         C492   1.541       .  S
C54          C62   1.379       .  A
C54         C939   1.403   1_455  A
C55         C496   1.382       .  A
C55          H68   1.081       .  S
C55         N944   1.360       .  A
N56         C943   1.360       .  A
N56         C501   1.358       .  A
N56         C213   1.442       .  S
C57          H58   1.083       .  S
C57         N500   1.358       .  A
C59          H69   1.082       .  S
C59          N60   1.355       .  A
N60         C949   1.356   1_455  A
N60         C111   1.432       .  S
C61          H67   1.082       .  S
C61         N948   1.356       .  A
C62          H64   1.082       .  S
C62         N951   1.353       .  A
N63          C65   1.354       .  A
N63         C950   1.353       .  A
N63         C109   1.431       .  S
C65          H66   1.082       .  S
C70          C72   1.542       .  S
C70          C74   1.535       .  S
C70         C154   1.547       .  S
C70         C517   1.550       .  S
C71          C76   1.548   1_565  S
C71         C519   1.533   1_565  S
C71         C521   1.545       .  S
C71         C587   1.546       .  S
C72          C80   1.378       .  A
C72          C75   1.392       .  A
C73         C514   1.550   1_545  S
C73          C84   1.380       .  A
C73          C76   1.403       .  A
C74          C88   1.383       .  A
C74          C77   1.403       .  A
C75         C515   1.533       .  S
C75         C522   1.378       .  A
C76          C82   1.383       .  A
C77         C515   1.545       .  S
C77          C85   1.383       .  A
C78         C519   1.378       .  A
C78          H91   1.082       .  S
C78          N79   1.359       .  A
N79         C524   1.358       .  A
N79         C171   1.439       .  S
C80          H81   1.081       .  S
C80         N523   1.358       .  A
C82          H92   1.082       .  S
C82          N83   1.357       .  A
N83          C84   1.355       .  A
N83         C136   1.433       .  S
C84          H90   1.081       .  S
C85          H87   1.082       .  S
C85          N86   1.353       .  A
N86          C88   1.353       .  A
N86         C131   1.432       .  S
C88          H89   1.083       .  S
O93         C109   1.274       .  A
O93        Zn321   2.022       .  S
C94         O110   1.270       .  A
C94         O107   1.268       .  A
C94         C137   1.429       .  S
O95         C996   1.275       .  A
O95        Cd102   2.076       .  S
O96        C1002   1.274       .  A
O96        Cd105   2.074       .  S
O97         C111   1.274       .  A
O97        Cd101   2.073       .  S
O98         C997   1.273       .  A
O98        Cd101   2.069       .  S
Zn99        O110   1.979       .  S
Zn99        O112   2.035       .  S
Zn99        O315   2.022   1_554  S
Zn99        O104   1.944       .  S
O100        C999   1.274       .  A
O100       Cd327   2.075       .  S
Cd101       O103   2.027       .  S
Cd101      O1214   1.994       .  S
Cd102       O106   2.034       .  S
Cd102       O115   2.095       .  S
Cd102       O992   1.996       .  S
O103        C335   1.269       .  A
O104       Cd105   1.995       .  S
O104      Cd1211   1.994   1_554  S
O104       Cd990   1.996       .  S
Cd105       O107   2.021       .  S
Cd105       O322   2.075   1_554  S
O106        C113   1.269       .  A
C108        O112   1.275       .  A
C108        O983   1.275       .  A
C109        O986   1.273       .  A
C111        O988   1.274   1_455  A
C113        O325   1.269   1_554  A
C113        C132   1.430       .  S
C114        O115   1.278       .  A
C114        O984   1.274   1_455  A
O116        C132   1.271       .  A
O116       Zn122   1.988       .  S
C117        O133   1.277       .  A
C117        O130   1.276       .  A
O118        C131   1.274       .  A
O118       Cd125   2.064       .  S
O119        C137   1.268       .  A
O119       Cd128   2.027       .  S
O120        C134   1.273       .  A
O120       Cd124   2.062       .  S
O121        C132   1.268       .  A
O121       Cd124   2.019       .  S
Zn122       O133   2.045       .  S
Zn122       O357   2.044   1_554  S
Zn122       O127   1.948       .  S
O123        C134   1.275       .  A
O123       Cd128   2.076       .  S
Cd124       O348   2.060   1_554  S
Cd124       O127   1.990       .  S
Cd125       O129   2.089       .  S
Cd125       O138   2.030       .  S
Cd125       O349   1.994       .  S
O126        C136   1.272       .  A
O126       Cd346   2.060       .  S
O127       Cd128   1.996       .  S
O127       Cd347   1.994   1_554  S
Cd128       O130   2.084       .  S
O129        C136   1.275       .  A
C131        O135   1.277       .  A
O135       Zn344   2.044       .  S
C137        O360   1.269   1_554  A
O138        C359   1.269       .  A
C139        C140   1.409       .  A
C139        C144   1.410       .  A
C139        H146   1.081       .  S
C140        C585   1.428       .  A
C141        C142   1.408       .  A
C141        C584   1.428   1_545  A
C141        N148   1.438       .  S
C142        C587   1.406   1_545  A
C142        H147   1.082       .  S
C143        C515   1.546       .  S
C143        C144   1.418       .  A
C143        C586   1.406       .  A
C144        N145   1.438       .  S
N145        H149   1.046       .  S
N145        H150   1.045       .  S
N148        H151   1.040       .  S
N148        H152   1.045       .  S
C153        C158   1.409       .  A
C153        C598   1.406   1_545  A
C153        H160   1.079       .  S
C154        C155   1.427       .  A
C154        C597   1.406       .  A
C155        C156   1.407       .  A
C155        N162   1.438       .  S
C156        C157   1.407       .  A
C156        H161   1.081       .  S
C157        C492   1.548       .  S
C157        C602   1.422       .  A
C158        C601   1.422   1_545  A
C158        N159   1.437       .  S
N159        H163   1.045       .  S
N159        H164   1.044   1_545  S
N162        H165   1.041       .  S
N162        H166   1.045       .  S
C167        C168   1.405       .  A
C167        C172   1.406       .  A
C167        H174   1.083       .  S
C168        C613   1.411   1_545  A
C169        C170   1.402       .  A
C169        C612   1.411       .  A
C169        N176   1.432       .  S
C170        C615   1.403       .  A
C170        H175   1.083       .  S
C171        C172   1.408       .  A
C171        C614   1.403   1_545  A
C172        N173   1.431       .  S
N173        H177   1.045       .  S
N173        H178   1.046       .  S
N176        H179   1.046       .  S
N176        H180   1.045       .  S
C181        C186   1.412       .  A
C181        C626   1.409       .  A
C181        H188   1.080       .  S
C182        C183   1.428       .  A
C182        C625   1.409       .  A
C183        C184   1.407       .  A
C183        N190   1.439       .  S
C184        C185   1.406       .  A
C184        H189   1.081       .  S
C185        C468   1.548       .  S
C185        C630   1.419       .  A
C186        C629   1.419       .  A
C186        N187   1.438       .  S
N187        H191   1.046       .  S
N187        H192   1.044       .  S
N190        H193   1.040       .  S
N190        H194   1.045       .  S
C195        C196   1.406       .  A
C195        C200   1.406       .  A
C195        H202   1.081       .  S
C196        C641   1.419       .  A
C197        C198   1.410       .  A
C197        C640   1.419   1_545  A
C197        N204   1.439       .  S
C198        C643   1.408       .  A
C198        H203   1.080       .  S
C199        C445   1.548       .  S
C199        C200   1.429       .  A
C199        C642   1.408       .  A
C200        N201   1.439       .  S
N201        H205   1.045       .  S
N201        H206   1.040       .  S
N204        H207   1.044       .  S
N204        H208   1.046       .  S
C209        C214   1.408       .  A
C209       C1098   1.405   1_545  A
C209        H216   1.083       .  S
C210       C1097   1.405   1_565  A
C210        C655   1.409       .  A
C211        C212   1.406       .  A
C211        C654   1.409       .  A
C211        N218   1.437       .  S
C212        C657   1.404       .  A
C212        H217   1.083       .  S
C213        C656   1.404   1_545  A
C213       C1102   1.411       .  A
C214       C1101   1.411       .  A
C214        N215   1.437       .  S
N215        H219   1.045       .  S
N215        H220   1.046       .  S
N218        H221   1.046       .  S
N218        H222   1.046       .  S
C223        C669   1.529   1_545  S
C223        C671   1.545   1_545  S
C223        C226   1.558       .  S
C223        C865   1.548       .  S
C224        C228   1.534       .  S
C224        C230   1.540       .  S
C224        C673   1.553       .  S
C224        C404   1.549       .  S
C225        C667   1.529       .  S
C225        C677   1.378       .  A
C225       C1116   1.386   1_455  A
C226        C237   1.389       .  A
C226       C1117   1.419   1_455  A
C227        C667   1.545       .  S
C227        C241   1.380       .  A
C227       C1118   1.395   1_455  A
C228       C1113   1.386       .  A
C228        C231   1.379       .  A
C229        C668   1.553       .  S
C229       C1114   1.419       .  A
C229        C235   1.387       .  A
C230       C1115   1.395       .  A
C230        C238   1.381       .  A
C231        H244   1.082       .  S
C231        N676   1.359       .  A
N232        C675   1.359       .  A
N232       C1121   1.358       .  A
N232        C432   1.441       .  S
C233        C669   1.378       .  A
C233        H234   1.083       .  S
C233       N1120   1.358       .  A
C235        H245   1.082       .  S
C235       N1124   1.352       .  A
N236       C1123   1.352   1_455  A
N236        C237   1.352       .  A
N236        C336   1.436       .  S
C237        H243   1.082       .  S
C238        H240   1.082       .  S
C238        N239   1.356       .  A
N239       C1129   1.357       .  A
N239        C330   1.434       .  S
C241        H242   1.082       .  S
C241       N1127   1.357       .  A
C246        C692   1.533   1_565  S
C246        C694   1.559       .  S
C246        C249   1.546   1_565  S
C246        C851   1.548   1_565  S
C247        C251   1.531       .  S
C247        C253   1.549       .  S
C247        C696   1.535       .  S
C247        C418   1.544       .  S
C248        C690   1.533       .  S
C248        C700   1.380       .  A
C248        C251   1.387       .  A
C249        C260   1.381       .  A
C249        C252   1.396       .  A
C250        C690   1.559       .  S
C250        C264   1.389       .  A
C250        C253   1.417       .  A
C251        C254   1.376       .  A
C252        C691   1.535   1_545  S
C252        C258   1.376       .  A
C253        C261   1.387       .  A
C254        H267   1.082       .  S
C254        N699   1.359       .  A
N255        C698   1.359       .  A
N255        C256   1.360       .  A
N255        C390   1.441       .  S
C256        C692   1.380       .  A
C256        H257   1.082       .  S
C258        H268   1.082       .  S
C258        N259   1.353       .  A
N259        C260   1.357       .  A
N259        C356   1.429       .  S
C260        H266   1.082       .  S
C261        H263   1.082       .  S
C261        N262   1.352       .  A
N262        C264   1.354       .  A
N262        C339   1.438       .  S
C264        H265   1.082       .  S
C269        C271   1.538       .  S
C269        C273   1.543       .  S
C269        C716   1.539       .  S
C269        C362   1.548       .  S
C270        C718   1.543   1_565  S
C270        C720   1.541       .  S
C270        C275   1.550   1_565  S
C270        C823   1.548       .  S
C271        C279   1.376       .  A
C271       C1162   1.395       .  A
C272        C713   1.539   1_545  S
C272        C283   1.379       .  A
C272       C1163   1.398       .  A
C273        C287   1.383       .  A
C273       C1164   1.403       .  A
C274        C714   1.543       .  S
C274       C1159   1.395   1_455  A
C274        C721   1.382       .  A
C275       C1160   1.398   1_455  A
C275        C281   1.381       .  A
C276        C714   1.541       .  S
C276       C1161   1.403   1_455  A
C276        C284   1.379       .  A
C277        C718   1.382       .  A
C277        H290   1.081       .  S
C277       N1166   1.360       .  A
N278       C1165   1.360       .  A
N278        C723   1.358       .  A
N278        C435   1.442       .  S
C279        H280   1.083       .  S
C279        N722   1.358       .  A
C281        H291   1.082       .  S
C281        N282   1.355       .  A
N282       C1171   1.356   1_455  A
N282        C333   1.432       .  S
C283        H289   1.082       .  S
C283       N1170   1.356       .  A
C284        H286   1.082       .  S
C284       N1173   1.353       .  A
N285       C1172   1.353       .  A
N285        C287   1.354       .  A
N285        C331   1.431       .  S
C287        H288   1.082       .  S
C292        C294   1.542       .  S
C292        C296   1.535       .  S
C292        C739   1.550       .  S
C292        C376   1.547       .  S
C293        C741   1.533   1_565  S
C293        C743   1.545       .  S
C293        C298   1.548   1_565  S
C293        C809   1.546       .  S
C294        C302   1.378       .  A
C294        C297   1.392       .  A
C295        C736   1.550   1_545  S
C295        C306   1.380       .  A
C295        C298   1.403       .  A
C296        C310   1.383       .  A
C296        C299   1.403       .  A
C297        C737   1.533       .  S
C297        C744   1.378       .  A
C298        C304   1.383       .  A
C299        C737   1.545       .  S
C299        C307   1.383       .  A
C300        C741   1.378       .  A
C300        H313   1.082       .  S
C300        N301   1.359       .  A
N301        C746   1.358       .  A
N301        C393   1.439       .  S
C302        H303   1.081       .  S
C302        N745   1.358       .  A
C304        H314   1.082       .  S
C304        N305   1.357       .  A
N305        C306   1.355       .  A
N305        C358   1.433       .  S
C306        H312   1.081       .  S
C307        H309   1.082       .  S
C307        N308   1.353       .  A
N308        C310   1.353       .  A
N308        C353   1.432       .  S
C310        H311   1.083       .  S
O315        C331   1.274       .  A
C316        O332   1.270       .  A
C316        O329   1.268       .  A
C316        C359   1.429       .  S
O317       C1218   1.275       .  A
O317       Cd324   2.076       .  S
O318       C1224   1.274       .  A
O318       Cd327   2.074       .  S
O319        C333   1.274       .  A
O319       Cd323   2.073       .  S
O320       C1219   1.273       .  A
O320       Cd323   2.069       .  S
Zn321       O332   1.979       .  S
Zn321       O334   2.035       .  S
Zn321       O326   1.944       .  S
O322       C1221   1.274       .  A
Cd323       O325   2.027       .  S
Cd323       O992   1.994   1_556  S
Cd324       O328   2.034       .  S
Cd324       O337   2.095       .  S
Cd324      O1214   1.996       .  S
O326       Cd989   1.994       .  S
O326      Cd1212   1.996       .  S
O326       Cd327   1.995       .  S
Cd327       O329   2.021       .  S
O328        C335   1.269       .  A
C330       O1205   1.275       .  A
C330        O334   1.275       .  A
C331       O1208   1.273       .  A
C333       O1210   1.274   1_455  A
C335        C354   1.430       .  S
C336       O1206   1.274   1_455  A
C336        O337   1.278       .  A
O338        C354   1.271       .  A
O338       Zn344   1.988       .  S
C339        O355   1.277       .  A
C339        O352   1.276       .  A
O340        C353   1.274       .  A
O340       Cd347   2.064       .  S
O341        C359   1.268       .  A
O341       Cd350   2.027       .  S
O342        C356   1.273       .  A
O342       Cd346   2.062       .  S
O343        C354   1.268       .  A
O343       Cd346   2.019       .  S
Zn344       O355   2.045       .  S
Zn344       O349   1.948       .  S
O345        C356   1.275       .  A
O345       Cd350   2.076       .  S
Cd346       O349   1.990       .  S
Cd347       O351   2.089       .  S
Cd347       O360   2.030       .  S
O348        C358   1.272       .  A
O349       Cd350   1.996       .  S
Cd350       O352   2.084       .  S
O351        C358   1.275       .  A
C353        O357   1.277       .  A
C361        C362   1.409       .  A
C361        C366   1.410       .  A
C361        H368   1.081       .  S
C362        C807   1.428       .  A
C363        C806   1.428   1_545  A
C363        C364   1.408       .  A
C363        N370   1.438       .  S
C364        C809   1.406   1_545  A
C364        H369   1.082       .  S
C365        C737   1.546       .  S
C365        C808   1.406       .  A
C365        C366   1.418       .  A
C366        N367   1.438       .  S
N367        H371   1.046       .  S
N367        H372   1.045       .  S
N370        H373   1.040       .  S
N370        H374   1.045       .  S
C375        C820   1.406   1_545  A
C375        C380   1.409       .  A
C375        H382   1.079       .  S
C376        C819   1.406       .  A
C376        C377   1.427       .  A
C377        C378   1.407       .  A
C377        N384   1.438       .  S
C378        C379   1.407       .  A
C378        H383   1.081       .  S
C379        C714   1.548       .  S
C379        C824   1.422       .  A
C380        C823   1.422   1_545  A
C380        N381   1.437       .  S
N381        H385   1.045       .  S
N381        H386   1.044   1_545  S
N384        H387   1.041       .  S
N384        H388   1.045       .  S
C389        C390   1.405       .  A
C389        C394   1.406       .  A
C389        H396   1.083       .  S
C390        C835   1.411   1_545  A
C391        C834   1.411       .  A
C391        C392   1.402       .  A
C391        N398   1.432       .  S
C392        C837   1.403       .  A
C392        H397   1.083       .  S
C393        C836   1.403   1_545  A
C393        C394   1.408       .  A
C394        N395   1.431       .  S
N395        H399   1.045       .  S
N395        H400   1.046       .  S
N398        H401   1.046       .  S
N398        H402   1.045       .  S
C403        C848   1.409       .  A
C403        C408   1.412       .  A
C403        H410   1.080       .  S
C404        C847   1.409       .  A
C404        C405   1.428       .  A
C405        C406   1.407       .  A
C405        N412   1.439       .  S
C406        C407   1.406       .  A
C406        H411   1.081       .  S
C407        C690   1.548       .  S
C407        C852   1.419       .  A
C408        C851   1.419       .  A
C408        N409   1.438       .  S
N409        H413   1.046       .  S
N409        H414   1.044       .  S
N412        H415   1.040       .  S
N412        H416   1.045       .  S
C417        C418   1.406       .  A
C417        C422   1.406       .  A
C417        H424   1.081       .  S
C418        C863   1.419       .  A
C419        C862   1.419   1_545  A
C419        C420   1.410       .  A
C419        N426   1.439       .  S
C420        C865   1.408       .  A
C420        H425   1.080       .  S
C421        C667   1.548       .  S
C421        C864   1.408       .  A
C421        C422   1.429       .  A
C422        N423   1.439       .  S
N423        H427   1.045       .  S
N423        H428   1.040       .  S
N426        H429   1.044       .  S
N426        H430   1.046       .  S
C431       C1320   1.405   1_545  A
C431        C436   1.408       .  A
C431        H438   1.083       .  S
C432       C1319   1.405   1_565  A
C432        C877   1.409       .  A
C433        C876   1.409       .  A
C433        C434   1.406       .  A
C433        N440   1.437       .  S
C434        C879   1.404       .  A
C434        H439   1.083       .  S
C435        C878   1.404   1_545  A
C435       C1324   1.411       .  A
C436       C1323   1.411       .  A
C436        N437   1.437       .  S
N437        H441   1.045       .  S
N437        H442   1.046       .  S
N440        H443   1.046       .  S
N440        H444   1.046       .  S
C445        C448   1.558       .  S
C446        C450   1.534   1_545  S
C446        C452   1.540   1_545  S
C446        C626   1.549       .  S
C447       C1338   1.386   1_455  A
C448        C459   1.389       .  A
C448       C1339   1.419   1_455  A
C449        C463   1.380       .  A
C449       C1340   1.395   1_455  A
C450       C1335   1.386       .  A
C450        C453   1.379       .  A
C451       C1336   1.419       .  A
C451        C457   1.387       .  A
C452       C1337   1.395       .  A
C452        C460   1.381       .  A
C453        H466   1.082       .  S
N454       C1343   1.358       .  A
N454        C654   1.441       .  S
C455        H456   1.083       .  S
C455       N1342   1.358       .  A
C457        H467   1.082       .  S
C457       N1346   1.352       .  A
N458       C1345   1.352   1_455  A
N458        C459   1.352       .  A
N458        C558   1.436       .  S
C459        H465   1.082       .  S
C460        H462   1.082       .  S
C460        N461   1.356       .  A
N461       C1351   1.357       .  A
N461        C552   1.434       .  S
C463        H464   1.082       .  S
C463       N1349   1.357       .  A
C468        C471   1.546       .  S
C469        C473   1.531   1_565  S
C469        C475   1.549       .  S
C469        C640   1.544       .  S
C470        C473   1.387       .  A
C471        C482   1.381       .  A
C471        C474   1.396       .  A
C472        C486   1.389       .  A
C472        C475   1.417       .  A
C473        C476   1.376       .  A
C474        C480   1.376       .  A
C475        C483   1.387       .  A
C476        H489   1.082       .  S
N477        C478   1.360       .  A
N477        C612   1.441       .  S
C478        H479   1.082       .  S
C480        H490   1.082       .  S
C480        N481   1.353       .  A
N481        C482   1.357       .  A
N481        C578   1.429       .  S
C482        H488   1.082       .  S
C483        H485   1.082       .  S
C483        N484   1.352       .  A
N484        C486   1.354       .  A
N484        C561   1.438       .  S
C486        H487   1.082       .  S
C491        C493   1.538   1_565  S
C491        C495   1.543       .  S
C491        C584   1.548       .  S
C492        C497   1.550       .  S
C493        C501   1.376       .  A
C493       C1384   1.395       .  A
C494        C505   1.379       .  A
C494       C1385   1.398       .  A
C495        C509   1.383       .  A
C495       C1386   1.403       .  A
C496       C1381   1.395   1_455  A
C497       C1382   1.398   1_455  A
C497        C503   1.381       .  A
C498       C1383   1.403   1_455  A
C498        C506   1.379       .  A
C499        H512   1.081       .  S
C499       N1388   1.360       .  A
N500       C1387   1.360       .  A
N500        C657   1.442       .  S
C501        H502   1.083       .  S
C503        H513   1.082       .  S
C503        N504   1.355       .  A
N504       C1393   1.356   1_455  A
N504        C555   1.432       .  S
C505        H511   1.082       .  S
C505       N1392   1.356       .  A
C506        H508   1.082       .  S
C506       N1395   1.353       .  A
N507       C1394   1.353       .  A
N507        C509   1.354       .  A
N507        C553   1.431       .  S
C509        H510   1.082       .  S
C514        C516   1.542   1_565  S
C514        C518   1.535       .  S
C514        C598   1.547       .  S
C515        C520   1.548       .  S
C516        C524   1.378       .  A
C516        C519   1.392       .  A
C517        C528   1.380       .  A
C517        C520   1.403       .  A
C518        C532   1.383       .  A
C518        C521   1.403       .  A
C520        C526   1.383       .  A
C521        C529   1.383       .  A
C522        H535   1.082       .  S
C522        N523   1.359       .  A
N523        C615   1.439       .  S
C524        H525   1.081       .  S
C526        H536   1.082       .  S
C526        N527   1.357       .  A
N527        C528   1.355       .  A
N527        C580   1.433       .  S
C528        H534   1.081       .  S
C529        H531   1.082       .  S
C529        N530   1.353       .  A
N530        C532   1.353       .  A
N530        C575   1.432       .  S
C532        H533   1.083       .  S
O537        C553   1.274       .  A
O537       Zn765   2.022       .  S
C538        O554   1.270       .  A
C538        O551   1.268       .  A
C538        C581   1.429       .  S
O539       C1440   1.275       .  A
O539       Cd546   2.076       .  S
O540       C1446   1.274       .  A
O540       Cd549   2.074       .  S
O541        C555   1.274       .  A
O541       Cd545   2.073       .  S
O542       C1441   1.273       .  A
O542       Cd545   2.069       .  S
Zn543       O759   2.022   1_554  S
Zn543       O554   1.979       .  S
Zn543       O556   2.035       .  S
Zn543       O548   1.944       .  S
O544       C1443   1.274       .  A
O544       Cd771   2.075       .  S
Cd545       O547   2.027       .  S
Cd545      O1658   1.994       .  S
Cd546       O550   2.034       .  S
Cd546       O559   2.095       .  S
Cd546      O1436   1.996       .  S
O547        C779   1.269       .  A
O548      Cd1655   1.994   1_554  S
O548      Cd1434   1.996       .  S
O548       Cd549   1.995       .  S
Cd549       O766   2.075   1_554  S
Cd549       O551   2.021       .  S
O550        C557   1.269       .  A
C552       O1427   1.275       .  A
C552        O556   1.275       .  A
C553       O1430   1.273       .  A
C555       O1432   1.274   1_455  A
C557        O769   1.269   1_554  A
C557        C576   1.430       .  S
C558       O1428   1.274   1_455  A
C558        O559   1.278       .  A
O560        C576   1.271       .  A
O560       Zn566   1.988       .  S
C561        O577   1.277       .  A
C561        O574   1.276       .  A
O562        C575   1.274       .  A
O562       Cd569   2.064       .  S
O563        C581   1.268       .  A
O563       Cd572   2.027       .  S
O564        C578   1.273       .  A
O564       Cd568   2.062       .  S
O565        C576   1.268       .  A
O565       Cd568   2.019       .  S
Zn566       O577   2.045       .  S
Zn566       O801   2.044   1_554  S
Zn566       O571   1.948       .  S
O567        C578   1.275       .  A
O567       Cd572   2.076       .  S
Cd568       O792   2.060   1_554  S
Cd568       O571   1.990       .  S
Cd569       O573   2.089       .  S
Cd569       O582   2.030       .  S
Cd569       O793   1.994       .  S
O570        C580   1.272       .  A
O570       Cd790   2.060       .  S
O571       Cd791   1.994   1_554  S
O571       Cd572   1.996       .  S
Cd572       O574   2.084       .  S
O573        C580   1.275       .  A
C575        O579   1.277       .  A
O579       Zn788   2.044       .  S
C581        O804   1.269   1_554  A
O582        C803   1.269       .  A
C583        C584   1.409       .  A
C583        C588   1.410       .  A
C583        H590   1.081       .  S
C585        C586   1.408       .  A
C585        N592   1.438       .  S
C586        H591   1.082       .  S
C587        C588   1.418       .  A
C588        N589   1.438       .  S
N589        H593   1.046       .  S
N589        H594   1.045       .  S
N592        H595   1.040       .  S
N592        H596   1.045       .  S
C597        C602   1.409       .  A
C597        H604   1.079       .  S
C598        C599   1.427       .  A
C599        C600   1.407       .  A
C599        N606   1.438       .  S
C600        C601   1.407       .  A
C600        H605   1.081       .  S
C602        N603   1.437       .  S
N603        H607   1.045       .  S
N603        H608   1.044       .  S
N606        H609   1.041       .  S
N606        H610   1.045       .  S
C611        C612   1.405       .  A
C611        C616   1.406       .  A
C611        H618   1.083       .  S
C613        C614   1.402       .  A
C613        N620   1.432       .  S
C614        H619   1.083       .  S
C615        C616   1.408       .  A
C616        N617   1.431       .  S
N617        H621   1.045       .  S
N617        H622   1.046       .  S
N620        H623   1.046       .  S
N620        H624   1.045       .  S
C625        C630   1.412       .  A
C625        H632   1.080       .  S
C626        C627   1.428   1_545  A
C627        C628   1.407       .  A
C627        N634   1.439       .  S
C628        C629   1.406   1_565  A
C628        H633   1.081       .  S
C630        N631   1.438       .  S
N631        H635   1.046       .  S
N631        H636   1.044       .  S
N634        H637   1.040       .  S
N634        H638   1.045       .  S
C639        C640   1.406       .  A
C639        C644   1.406       .  A
C639        H646   1.081       .  S
C641        C642   1.410       .  A
C641        N648   1.439       .  S
C642        H647   1.080       .  S
C643        C644   1.429   1_545  A
C644        N645   1.439       .  S
N645        H649   1.045       .  S
N645        H650   1.040       .  S
N648        H651   1.044       .  S
N648        H652   1.046       .  S
C653       C1542   1.405       .  A
C653        C658   1.408       .  A
C653        H660   1.083       .  S
C654       C1541   1.405       .  A
C655        C656   1.406       .  A
C655        N662   1.437       .  S
C656        H661   1.083       .  S
C657       C1546   1.411       .  A
C658       C1545   1.411       .  A
C658        N659   1.437       .  S
N659        H663   1.045       .  S
N659        H664   1.046       .  S
N662        H665   1.046       .  S
N662        H666   1.046       .  S
C667        C670   1.558       .  S
C668        C672   1.534   1_545  S
C668        C674   1.540   1_545  S
C668        C848   1.549       .  S
C669       C1560   1.386   1_455  A
C670        C681   1.389       .  A
C670       C1561   1.419   1_455  A
C671        C685   1.380       .  A
C671       C1562   1.395   1_455  A
C672       C1557   1.386       .  A
C672        C675   1.379       .  A
C673       C1558   1.419       .  A
C673        C679   1.387       .  A
C674       C1559   1.395       .  A
C674        C682   1.381       .  A
C675        H688   1.082       .  S
N676       C1565   1.358       .  A
N676        C876   1.441       .  S
C677        H678   1.083       .  S
C677       N1564   1.358       .  A
C679        H689   1.082       .  S
C679       N1568   1.352       .  A
N680       C1567   1.352   1_455  A
N680        C681   1.352       .  A
N680        C780   1.436       .  S
C681        H687   1.082       .  S
C682        H684   1.082       .  S
C682        N683   1.356       .  A
N683       C1573   1.357       .  A
N683        C774   1.434       .  S
C685        H686   1.082       .  S
C685       N1571   1.357       .  A
C690        C693   1.546       .  S
C691        C695   1.531   1_565  S
C691        C697   1.549       .  S
C691        C862   1.544       .  S
C692        C695   1.387       .  A
C693        C704   1.381       .  A
C693        C696   1.396       .  A
C694        C708   1.389       .  A
C694        C697   1.417       .  A
C695        C698   1.376       .  A
C696        C702   1.376       .  A
C697        C705   1.387       .  A
C698        H711   1.082       .  S
N699        C700   1.360       .  A
N699        C834   1.441       .  S
C700        H701   1.082       .  S
C702        H712   1.082       .  S
C702        N703   1.353       .  A
N703        C704   1.357       .  A
N703        C800   1.429       .  S
C704        H710   1.082       .  S
C705        H707   1.082       .  S
C705        N706   1.352       .  A
N706        C708   1.354       .  A
N706        C783   1.438       .  S
C708        H709   1.082       .  S
C713        C715   1.538   1_565  S
C713        C717   1.543       .  S
C713        C806   1.548       .  S
C714        C719   1.550       .  S
C715        C723   1.376       .  A
C715       C1606   1.395       .  A
C716        C727   1.379       .  A
C716       C1607   1.398       .  A
C717        C731   1.383       .  A
C717       C1608   1.403       .  A
C718       C1603   1.395   1_455  A
C719       C1604   1.398   1_455  A
C719        C725   1.381       .  A
C720       C1605   1.403   1_455  A
C720        C728   1.379       .  A
C721        H734   1.081       .  S
C721       N1610   1.360       .  A
N722       C1609   1.360       .  A
N722        C879   1.442       .  S
C723        H724   1.083       .  S
C725        H735   1.082       .  S
C725        N726   1.355       .  A
N726       C1615   1.356   1_455  A
N726        C777   1.432       .  S
C727        H733   1.082       .  S
C727       N1614   1.356       .  A
C728        H730   1.082       .  S
C728       N1617   1.353       .  A
N729       C1616   1.353       .  A
N729        C731   1.354       .  A
N729        C775   1.431       .  S
C731        H732   1.082       .  S
C736        C738   1.542   1_565  S
C736        C740   1.535       .  S
C736        C820   1.547       .  S
C737        C742   1.548       .  S
C738        C746   1.378       .  A
C738        C741   1.392       .  A
C739        C750   1.380       .  A
C739        C742   1.403       .  A
C740        C754   1.383       .  A
C740        C743   1.403       .  A
C742        C748   1.383       .  A
C743        C751   1.383       .  A
C744        H757   1.082       .  S
C744        N745   1.359       .  A
N745        C837   1.439       .  S
C746        H747   1.081       .  S
C748        H758   1.082       .  S
C748        N749   1.357       .  A
N749        C750   1.355       .  A
N749        C802   1.433       .  S
C750        H756   1.081       .  S
C751        H753   1.082       .  S
C751        N752   1.353       .  A
N752        C754   1.353       .  A
N752        C797   1.432       .  S
C754        H755   1.083       .  S
O759        C775   1.274       .  A
C760        O776   1.270       .  A
C760        O773   1.268       .  A
C760        C803   1.429       .  S
O761       C1662   1.275       .  A
O761       Cd768   2.076       .  S
O762       C1668   1.274       .  A
O762       Cd771   2.074       .  S
O763        C777   1.274       .  A
O763       Cd767   2.073       .  S
O764       C1663   1.273       .  A
O764       Cd767   2.069       .  S
Zn765       O776   1.979       .  S
Zn765       O778   2.035       .  S
Zn765       O770   1.944       .  S
O766       C1665   1.274       .  A
Cd767       O769   2.027       .  S
Cd767      O1436   1.994   1_556  S
Cd768       O772   2.034       .  S
Cd768       O781   2.095       .  S
Cd768      O1658   1.996       .  S
O770      Cd1433   1.994       .  S
O770      Cd1656   1.996       .  S
O770       Cd771   1.995       .  S
Cd771       O773   2.021       .  S
O772        C779   1.269       .  A
C774       O1649   1.275       .  A
C774        O778   1.275       .  A
C775       O1652   1.273       .  A
C777       O1654   1.274   1_455  A
C779        C798   1.430       .  S
C780       O1650   1.274   1_455  A
C780        O781   1.278       .  A
O782        C798   1.271       .  A
O782       Zn788   1.988       .  S
C783        O799   1.277       .  A
C783        O796   1.276       .  A
O784        C797   1.274       .  A
O784       Cd791   2.064       .  S
O785        C803   1.268       .  A
O785       Cd794   2.027       .  S
O786        C800   1.273       .  A
O786       Cd790   2.062       .  S
O787        C798   1.268       .  A
O787       Cd790   2.019       .  S
Zn788       O799   2.045       .  S
Zn788       O793   1.948       .  S
O789        C800   1.275       .  A
O789       Cd794   2.076       .  S
Cd790       O793   1.990       .  S
Cd791       O795   2.089       .  S
Cd791       O804   2.030       .  S
O792        C802   1.272       .  A
O793       Cd794   1.996       .  S
Cd794       O796   2.084       .  S
O795        C802   1.275       .  A
C797        O801   1.277       .  A
C805        C806   1.409       .  A
C805        C810   1.410       .  A
C805        H812   1.081       .  S
C807        C808   1.408       .  A
C807        N814   1.438       .  S
C808        H813   1.082       .  S
C809        C810   1.418       .  A
C810        N811   1.438       .  S
N811        H815   1.046       .  S
N811        H816   1.045       .  S
N814        H817   1.040       .  S
N814        H818   1.045       .  S
C819        C824   1.409       .  A
C819        H826   1.079       .  S
C820        C821   1.427       .  A
C821        C822   1.407       .  A
C821        N828   1.438       .  S
C822        C823   1.407       .  A
C822        H827   1.081       .  S
C824        N825   1.437       .  S
N825        H829   1.045       .  S
N825        H830   1.044       .  S
N828        H831   1.041       .  S
N828        H832   1.045       .  S
C833        C834   1.405       .  A
C833        C838   1.406       .  A
C833        H840   1.083       .  S
C835        C836   1.402       .  A
C835        N842   1.432       .  S
C836        H841   1.083       .  S
C837        C838   1.408       .  A
C838        N839   1.431       .  S
N839        H843   1.045       .  S
N839        H844   1.046       .  S
N842        H845   1.046       .  S
N842        H846   1.045       .  S
C847        C852   1.412       .  A
C847        H854   1.080       .  S
C848        C849   1.428   1_545  A
C849        C850   1.407       .  A
C849        N856   1.439       .  S
C850        C851   1.406   1_565  A
C850        H855   1.081       .  S
C852        N853   1.438       .  S
N853        H857   1.046       .  S
N853        H858   1.044       .  S
N856        H859   1.040       .  S
N856        H860   1.045       .  S
C861        C862   1.406       .  A
C861        C866   1.406       .  A
C861        H868   1.081       .  S
C863        C864   1.410       .  A
C863        N870   1.439       .  S
C864        H869   1.080       .  S
C865        C866   1.429   1_545  A
C866        N867   1.439       .  S
N867        H871   1.045       .  S
N867        H872   1.040       .  S
N870        H873   1.044       .  S
N870        H874   1.046       .  S
C875       C1764   1.405       .  A
C875        C880   1.408       .  A
C875        H882   1.083       .  S
C876       C1763   1.405       .  A
C877        C878   1.406       .  A
C877        N884   1.437       .  S
C878        H883   1.083       .  S
C879       C1768   1.411       .  A
C880       C1767   1.411       .  A
C880        N881   1.437       .  S
N881        H885   1.045       .  S
N881        H886   1.046       .  S
N884        H887   1.046       .  S
N884        H888   1.046       .  S
C889       C1335   1.529   1_545  S
C889       C1337   1.545   1_545  S
C889        C892   1.558       .  S
C889       C1531   1.548       .  S
C890        C894   1.534       .  S
C890        C896   1.540       .  S
C890       C1339   1.553       .  S
C890       C1070   1.549       .  S
C891       C1333   1.529       .  S
C891       C1343   1.378       .  A
C892        C903   1.389       .  A
C893       C1333   1.545       .  S
C893        C907   1.380       .  A
C894        C897   1.379       .  A
C895       C1334   1.553       .  S
C895        C901   1.387       .  A
C896        C904   1.381       .  A
C897        H910   1.082       .  S
C897       N1342   1.359   1_655  A
N898       C1341   1.359   1_455  A
N898       C1098   1.441       .  S
C899       C1335   1.378       .  A
C899        H900   1.083       .  S
C901        H911   1.082       .  S
N902        C903   1.352       .  A
N902       C1002   1.436       .  S
C903        H909   1.082       .  S
C904        H906   1.082       .  S
C904        N905   1.356   1_655  A
N905        C996   1.434       .  S
C907        H908   1.082       .  S
C912       C1358   1.533   1_565  S
C912       C1360   1.559       .  S
C912        C915   1.546   1_565  S
C912       C1517   1.548   1_565  S
C913        C917   1.531       .  S
C913        C919   1.549       .  S
C913       C1362   1.535       .  S
C913       C1084   1.544       .  S
C914       C1356   1.533       .  S
C914       C1366   1.380       .  A
C914        C917   1.387       .  A
C915        C926   1.381       .  A
C915        C918   1.396       .  A
C916       C1356   1.559       .  S
C916        C930   1.389       .  A
C916        C919   1.417       .  A
C917        C920   1.376       .  A
C918       C1357   1.535   1_545  S
C918        C924   1.376       .  A
C919        C927   1.387       .  A
C920        H933   1.082       .  S
C920       N1365   1.359       .  A
N921       C1364   1.359       .  A
N921        C922   1.360       .  A
N921       C1056   1.441       .  S
C922       C1358   1.380       .  A
C922        H923   1.082       .  S
C924        H934   1.082       .  S
C924        N925   1.353       .  A
N925        C926   1.357       .  A
N925       C1022   1.429       .  S
C926        H932   1.082       .  S
C927        H929   1.082       .  S
C927        N928   1.352       .  A
N928        C930   1.354       .  A
N928       C1005   1.438       .  S
C930        H931   1.082       .  S
C935        C937   1.538       .  S
C935        C939   1.543       .  S
C935       C1382   1.539       .  S
C935       C1028   1.548       .  S
C936       C1384   1.543   1_565  S
C936       C1386   1.541       .  S
C936        C941   1.550   1_565  S
C936       C1489   1.548       .  S
C937        C945   1.376       .  A
C938       C1379   1.539   1_545  S
C938        C949   1.379       .  A
C939        C953   1.383       .  A
C940       C1380   1.543       .  S
C940       C1387   1.382       .  A
C941        C947   1.381       .  A
C942       C1380   1.541       .  S
C942        C950   1.379       .  A
C943       C1384   1.382       .  A
C943        H956   1.081       .  S
N944       C1389   1.358   1_455  A
N944       C1101   1.442       .  S
C945        H946   1.083       .  S
C945       N1388   1.358   1_655  A
C947        H957   1.082       .  S
C947        N948   1.355       .  A
N948        C999   1.432       .  S
C949        H955   1.082       .  S
C950        H952   1.082       .  S
N951        C953   1.354   1_455  A
N951        C997   1.431       .  S
C953        H954   1.082       .  S
C958        C960   1.542       .  S
C958        C962   1.535       .  S
C958       C1405   1.550       .  S
C958       C1042   1.547       .  S
C959       C1407   1.533   1_565  S
C959       C1409   1.545       .  S
C959        C964   1.548   1_565  S
C959       C1475   1.546       .  S
C960        C968   1.378       .  A
C960        C963   1.392       .  A
C961       C1402   1.550   1_545  S
C961        C972   1.380       .  A
C961        C964   1.403       .  A
C962        C976   1.383       .  A
C962        C965   1.403       .  A
C963       C1403   1.533       .  S
C963       C1410   1.378       .  A
C964        C970   1.383       .  A
C965       C1403   1.545       .  S
C965        C973   1.383       .  A
C966       C1407   1.378       .  A
C966        H979   1.082       .  S
C966        N967   1.359       .  A
N967       C1412   1.358       .  A
N967       C1059   1.439       .  S
C968        H969   1.081       .  S
C968       N1411   1.358       .  A
C970        H980   1.082       .  S
C970        N971   1.357       .  A
N971        C972   1.355       .  A
N971       C1024   1.433       .  S
C972        H978   1.081       .  S
C973        H975   1.082       .  S
C973        N974   1.353       .  A
N974        C976   1.353       .  A
N974       C1019   1.432       .  S
C976        H977   1.083       .  S
O981        C997   1.274   1_655  A
O981      Zn1209   2.022       .  S
C982        O998   1.270       .  A
C982        O995   1.268       .  A
C982       C1025   1.429       .  S
O983       Cd990   2.076       .  S
O984       Cd993   2.074       .  S
O985        C999   1.274       .  A
O985       Cd989   2.073       .  S
O986       Cd989   2.069       .  S
Zn987      O1203   2.022   1_554  S
Zn987       O998   1.979       .  S
Zn987      O1000   2.035       .  S
Zn987       O992   1.944   1_655  S
O988      Cd1215   2.075       .  S
Cd989       O991   2.027       .  S
Cd990       O994   2.034       .  S
Cd990      O1003   2.095       .  S
O991       C1223   1.269       .  A
O992       Cd993   1.995   1_455  S
Cd993      O1210   2.075   1_554  S
Cd993       O995   2.021       .  S
O994       C1001   1.269       .  A
C996       O1000   1.275   1_455  A
C1001      O1213   1.269   1_554  A
C1001      C1020   1.430       .  S
C1002      O1003   1.278       .  A
O1004      C1020   1.271       .  A
O1004     Zn1010   1.988       .  S
C1005      O1021   1.277       .  A
C1005      O1018   1.276       .  A
O1006      C1019   1.274       .  A
O1006     Cd1013   2.064       .  S
O1007      C1025   1.268       .  A
O1007     Cd1016   2.027       .  S
O1008      C1022   1.273       .  A
O1008     Cd1012   2.062       .  S
O1009      C1020   1.268       .  A
O1009     Cd1012   2.019       .  S
Zn1010     O1021   2.045       .  S
Zn1010     O1245   2.044   1_554  S
Zn1010     O1015   1.948       .  S
O1011      C1022   1.275       .  A
O1011     Cd1016   2.076       .  S
Cd1012     O1236   2.060   1_554  S
Cd1012     O1015   1.990       .  S
Cd1013     O1017   2.089       .  S
Cd1013     O1026   2.030       .  S
Cd1013     O1237   1.994       .  S
O1014      C1024   1.272       .  A
O1014     Cd1234   2.060       .  S
O1015     Cd1235   1.994   1_554  S
O1015     Cd1016   1.996       .  S
Cd1016     O1018   2.084       .  S
O1017      C1024   1.275       .  A
C1019      O1023   1.277       .  A
O1023     Zn1232   2.044       .  S
C1025      O1248   1.269   1_554  A
O1026      C1247   1.269       .  A
C1027      C1028   1.409       .  A
C1027      C1032   1.410       .  A
C1027      H1034   1.081       .  S
C1028      C1473   1.428       .  A
C1029      C1472   1.428   1_545  A
C1029      C1030   1.408       .  A
C1029      N1036   1.438       .  S
C1030      C1475   1.406   1_545  A
C1030      H1035   1.082       .  S
C1031      C1403   1.546       .  S
C1031      C1474   1.406       .  A
C1031      C1032   1.418       .  A
C1032      N1033   1.438       .  S
N1033      H1037   1.046       .  S
N1033      H1038   1.045       .  S
N1036      H1039   1.040       .  S
N1036      H1040   1.045       .  S
C1041      C1486   1.406   1_545  A
C1041      C1046   1.409       .  A
C1041      H1048   1.079       .  S
C1042      C1485   1.406       .  A
C1042      C1043   1.427       .  A
C1043      C1044   1.407       .  A
C1043      N1050   1.438       .  S
C1044      C1045   1.407       .  A
C1044      H1049   1.081       .  S
C1045      C1380   1.548       .  S
C1045      C1490   1.422       .  A
C1046      C1489   1.422   1_545  A
C1046      N1047   1.437       .  S
N1047      H1051   1.045       .  S
N1047      H1052   1.044   1_545  S
N1050      H1053   1.041       .  S
N1050      H1054   1.045       .  S
C1055      C1056   1.405       .  A
C1055      C1060   1.406       .  A
C1055      H1062   1.083       .  S
C1056      C1501   1.411   1_545  A
C1057      C1500   1.411       .  A
C1057      C1058   1.402       .  A
C1057      N1064   1.432       .  S
C1058      C1503   1.403       .  A
C1058      H1063   1.083       .  S
C1059      C1502   1.403   1_545  A
C1059      C1060   1.408       .  A
C1060      N1061   1.431       .  S
N1061      H1065   1.045       .  S
N1061      H1066   1.046       .  S
N1064      H1067   1.046       .  S
N1064      H1068   1.045       .  S
C1069      C1514   1.409       .  A
C1069      C1074   1.412       .  A
C1069      H1076   1.080       .  S
C1070      C1513   1.409       .  A
C1070      C1071   1.428       .  A
C1071      C1072   1.407       .  A
C1071      N1078   1.439       .  S
C1072      C1073   1.406       .  A
C1072      H1077   1.081       .  S
C1073      C1356   1.548       .  S
C1073      C1518   1.419       .  A
C1074      C1517   1.419       .  A
C1074      N1075   1.438       .  S
N1075      H1079   1.046       .  S
N1075      H1080   1.044       .  S
N1078      H1081   1.040       .  S
N1078      H1082   1.045       .  S
C1083      C1084   1.406       .  A
C1083      C1088   1.406       .  A
C1083      H1090   1.081       .  S
C1084      C1529   1.419       .  A
C1085      C1528   1.419   1_545  A
C1085      C1086   1.410       .  A
C1085      N1092   1.439       .  S
C1086      C1531   1.408       .  A
C1086      H1091   1.080       .  S
C1087      C1333   1.548       .  S
C1087      C1530   1.408       .  A
C1087      C1088   1.429       .  A
C1088      N1089   1.439       .  S
N1089      H1093   1.045       .  S
N1089      H1094   1.040       .  S
N1092      H1095   1.044       .  S
N1092      H1096   1.046       .  S
C1097      C1102   1.408       .  A
C1097      H1104   1.083       .  S
C1098      C1543   1.409   1_455  A
C1099      C1542   1.409   1_655  A
C1099      C1100   1.406       .  A
C1099      N1106   1.437       .  S
C1100      C1545   1.404   1_655  A
C1100      H1105   1.083       .  S
C1101      C1544   1.404   1_445  A
C1102      N1103   1.437       .  S
N1103      H1107   1.045       .  S
N1103      H1108   1.046       .  S
N1106      H1109   1.046       .  S
N1106      H1110   1.046       .  S
C1111      C1557   1.529   1_545  S
C1111      C1559   1.545   1_545  S
C1111      C1114   1.558       .  S
C1111      C1753   1.548       .  S
C1112      C1116   1.534       .  S
C1112      C1118   1.540       .  S
C1112      C1561   1.553       .  S
C1112      C1292   1.549       .  S
C1113      C1555   1.529       .  S
C1113      C1565   1.378       .  A
C1114      C1125   1.389       .  A
C1115      C1555   1.545       .  S
C1115      C1129   1.380       .  A
C1116      C1119   1.379       .  A
C1117      C1556   1.553       .  S
C1117      C1123   1.387       .  A
C1118      C1126   1.381       .  A
C1119      H1132   1.082       .  S
C1119      N1564   1.359   1_655  A
N1120      C1563   1.359   1_455  A
N1120      C1320   1.441       .  S
C1121      C1557   1.378       .  A
C1121      H1122   1.083       .  S
C1123      H1133   1.082       .  S
N1124      C1125   1.352       .  A
N1124      C1224   1.436       .  S
C1125      H1131   1.082       .  S
C1126      H1128   1.082       .  S
C1126      N1127   1.356   1_655  A
N1127      C1218   1.434       .  S
C1129      H1130   1.082       .  S
C1134      C1580   1.533   1_565  S
C1134      C1582   1.559       .  S
C1134      C1137   1.546   1_565  S
C1134      C1739   1.548   1_565  S
C1135      C1139   1.531       .  S
C1135      C1141   1.549       .  S
C1135      C1584   1.535       .  S
C1135      C1306   1.544       .  S
C1136      C1578   1.533       .  S
C1136      C1588   1.380       .  A
C1136      C1139   1.387       .  A
C1137      C1148   1.381       .  A
C1137      C1140   1.396       .  A
C1138      C1578   1.559       .  S
C1138      C1152   1.389       .  A
C1138      C1141   1.417       .  A
C1139      C1142   1.376       .  A
C1140      C1579   1.535   1_545  S
C1140      C1146   1.376       .  A
C1141      C1149   1.387       .  A
C1142      H1155   1.082       .  S
C1142      N1587   1.359       .  A
N1143      C1586   1.359       .  A
N1143      C1144   1.360       .  A
N1143      C1278   1.441       .  S
C1144      C1580   1.380       .  A
C1144      H1145   1.082       .  S
C1146      H1156   1.082       .  S
C1146      N1147   1.353       .  A
N1147      C1148   1.357       .  A
N1147      C1244   1.429       .  S
C1148      H1154   1.082       .  S
C1149      H1151   1.082       .  S
C1149      N1150   1.352       .  A
N1150      C1152   1.354       .  A
N1150      C1227   1.438       .  S
C1152      H1153   1.082       .  S
C1157      C1159   1.538       .  S
C1157      C1161   1.543       .  S
C1157      C1604   1.539       .  S
C1157      C1250   1.548       .  S
C1158      C1606   1.543   1_565  S
C1158      C1608   1.541       .  S
C1158      C1163   1.550   1_565  S
C1158      C1711   1.548       .  S
C1159      C1167   1.376       .  A
C1160      C1601   1.539   1_545  S
C1160      C1171   1.379       .  A
C1161      C1175   1.383       .  A
C1162      C1602   1.543       .  S
C1162      C1609   1.382       .  A
C1163      C1169   1.381       .  A
C1164      C1602   1.541       .  S
C1164      C1172   1.379       .  A
C1165      C1606   1.382       .  A
C1165      H1178   1.081       .  S
N1166      C1611   1.358   1_455  A
N1166      C1323   1.442       .  S
C1167      H1168   1.083       .  S
C1167      N1610   1.358   1_655  A
C1169      H1179   1.082       .  S
C1169      N1170   1.355       .  A
N1170      C1221   1.432       .  S
C1171      H1177   1.082       .  S
C1172      H1174   1.082       .  S
N1173      C1175   1.354   1_455  A
N1173      C1219   1.431       .  S
C1175      H1176   1.082       .  S
C1180      C1182   1.542       .  S
C1180      C1184   1.535       .  S
C1180      C1627   1.550       .  S
C1180      C1264   1.547       .  S
C1181      C1629   1.533   1_565  S
C1181      C1631   1.545       .  S
C1181      C1186   1.548   1_565  S
C1181      C1697   1.546       .  S
C1182      C1190   1.378       .  A
C1182      C1185   1.392       .  A
C1183      C1624   1.550   1_545  S
C1183      C1194   1.380       .  A
C1183      C1186   1.403       .  A
C1184      C1198   1.383       .  A
C1184      C1187   1.403       .  A
C1185      C1625   1.533       .  S
C1185      C1632   1.378       .  A
C1186      C1192   1.383       .  A
C1187      C1625   1.545       .  S
C1187      C1195   1.383       .  A
C1188      C1629   1.378       .  A
C1188      H1201   1.082       .  S
C1188      N1189   1.359       .  A
N1189      C1634   1.358       .  A
N1189      C1281   1.439       .  S
C1190      H1191   1.081       .  S
C1190      N1633   1.358       .  A
C1192      H1202   1.082       .  S
C1192      N1193   1.357       .  A
N1193      C1194   1.355       .  A
N1193      C1246   1.433       .  S
C1194      H1200   1.081       .  S
C1195      H1197   1.082       .  S
C1195      N1196   1.353       .  A
N1196      C1198   1.353       .  A
N1196      C1241   1.432       .  S
C1198      H1199   1.083       .  S
O1203      C1219   1.274   1_655  A
C1204      O1220   1.270       .  A
C1204      O1217   1.268       .  A
C1204      C1247   1.429       .  S
O1205     Cd1212   2.076       .  S
O1206     Cd1215   2.074       .  S
O1207      C1221   1.274       .  A
O1207     Cd1211   2.073       .  S
O1208     Cd1211   2.069       .  S
Zn1209     O1220   1.979       .  S
Zn1209     O1222   2.035       .  S
Zn1209     O1214   1.944   1_655  S
Cd1211     O1213   2.027       .  S
Cd1212     O1216   2.034       .  S
Cd1212     O1225   2.095       .  S
O1214     Cd1215   1.995   1_455  S
Cd1215     O1217   2.021       .  S
O1216      C1223   1.269       .  A
C1218      O1222   1.275   1_455  A
C1223      C1242   1.430       .  S
C1224      O1225   1.278       .  A
O1226      C1242   1.271       .  A
O1226     Zn1232   1.988       .  S
C1227      O1243   1.277       .  A
C1227      O1240   1.276       .  A
O1228      C1241   1.274       .  A
O1228     Cd1235   2.064       .  S
O1229      C1247   1.268       .  A
O1229     Cd1238   2.027       .  S
O1230      C1244   1.273       .  A
O1230     Cd1234   2.062       .  S
O1231      C1242   1.268       .  A
O1231     Cd1234   2.019       .  S
Zn1232     O1243   2.045       .  S
Zn1232     O1237   1.948       .  S
O1233      C1244   1.275       .  A
O1233     Cd1238   2.076       .  S
Cd1234     O1237   1.990       .  S
Cd1235     O1239   2.089       .  S
Cd1235     O1248   2.030       .  S
O1236      C1246   1.272       .  A
O1237     Cd1238   1.996       .  S
Cd1238     O1240   2.084       .  S
O1239      C1246   1.275       .  A
C1241      O1245   1.277       .  A
C1249      C1250   1.409       .  A
C1249      C1254   1.410       .  A
C1249      H1256   1.081       .  S
C1250      C1695   1.428       .  A
C1251      C1694   1.428   1_545  A
C1251      C1252   1.408       .  A
C1251      N1258   1.438       .  S
C1252      C1697   1.406   1_545  A
C1252      H1257   1.082       .  S
C1253      C1625   1.546       .  S
C1253      C1696   1.406       .  A
C1253      C1254   1.418       .  A
C1254      N1255   1.438       .  S
N1255      H1259   1.046       .  S
N1255      H1260   1.045       .  S
N1258      H1261   1.040       .  S
N1258      H1262   1.045       .  S
C1263      C1708   1.406   1_545  A
C1263      C1268   1.409       .  A
C1263      H1270   1.079       .  S
C1264      C1707   1.406       .  A
C1264      C1265   1.427       .  A
C1265      C1266   1.407       .  A
C1265      N1272   1.438       .  S
C1266      C1267   1.407       .  A
C1266      H1271   1.081       .  S
C1267      C1602   1.548       .  S
C1267      C1712   1.422       .  A
C1268      C1711   1.422   1_545  A
C1268      N1269   1.437       .  S
N1269      H1273   1.045       .  S
N1269      H1274   1.044   1_545  S
N1272      H1275   1.041       .  S
N1272      H1276   1.045       .  S
C1277      C1278   1.405       .  A
C1277      C1282   1.406       .  A
C1277      H1284   1.083       .  S
C1278      C1723   1.411   1_545  A
C1279      C1722   1.411       .  A
C1279      C1280   1.402       .  A
C1279      N1286   1.432       .  S
C1280      C1725   1.403       .  A
C1280      H1285   1.083       .  S
C1281      C1724   1.403   1_545  A
C1281      C1282   1.408       .  A
C1282      N1283   1.431       .  S
N1283      H1287   1.045       .  S
N1283      H1288   1.046       .  S
N1286      H1289   1.046       .  S
N1286      H1290   1.045       .  S
C1291      C1736   1.409       .  A
C1291      C1296   1.412       .  A
C1291      H1298   1.080       .  S
C1292      C1735   1.409       .  A
C1292      C1293   1.428       .  A
C1293      C1294   1.407       .  A
C1293      N1300   1.439       .  S
C1294      C1295   1.406       .  A
C1294      H1299   1.081       .  S
C1295      C1578   1.548       .  S
C1295      C1740   1.419       .  A
C1296      C1739   1.419       .  A
C1296      N1297   1.438       .  S
N1297      H1301   1.046       .  S
N1297      H1302   1.044       .  S
N1300      H1303   1.040       .  S
N1300      H1304   1.045       .  S
C1305      C1306   1.406       .  A
C1305      C1310   1.406       .  A
C1305      H1312   1.081       .  S
C1306      C1751   1.419       .  A
C1307      C1750   1.419   1_545  A
C1307      C1308   1.410       .  A
C1307      N1314   1.439       .  S
C1308      C1753   1.408       .  A
C1308      H1313   1.080       .  S
C1309      C1555   1.548       .  S
C1309      C1752   1.408       .  A
C1309      C1310   1.429       .  A
C1310      N1311   1.439       .  S
N1311      H1315   1.045       .  S
N1311      H1316   1.040       .  S
N1314      H1317   1.044       .  S
N1314      H1318   1.046       .  S
C1319      C1324   1.408       .  A
C1319      H1326   1.083       .  S
C1320      C1765   1.409   1_455  A
C1321      C1764   1.409   1_655  A
C1321      C1322   1.406       .  A
C1321      N1328   1.437       .  S
C1322      C1767   1.404   1_655  A
C1322      H1327   1.083       .  S
C1323      C1766   1.404   1_445  A
C1324      N1325   1.437       .  S
N1325      H1329   1.045       .  S
N1325      H1330   1.046       .  S
N1328      H1331   1.046       .  S
N1328      H1332   1.046       .  S
C1333      C1336   1.558       .  S
C1334      C1338   1.534   1_545  S
C1334      C1340   1.540   1_545  S
C1334      C1514   1.549       .  S
C1336      C1347   1.389       .  A
C1337      C1351   1.380       .  A
C1338      C1341   1.379       .  A
C1339      C1345   1.387       .  A
C1340      C1348   1.381       .  A
C1341      H1354   1.082       .  S
N1342      C1542   1.441       .  S
C1343      H1344   1.083       .  S
C1345      H1355   1.082       .  S
N1346      C1347   1.352       .  A
N1346      C1446   1.436       .  S
C1347      H1353   1.082       .  S
C1348      H1350   1.082       .  S
C1348      N1349   1.356   1_655  A
N1349      C1440   1.434       .  S
C1351      H1352   1.082       .  S
C1356      C1359   1.546       .  S
C1357      C1361   1.531   1_565  S
C1357      C1363   1.549       .  S
C1357      C1528   1.544       .  S
C1358      C1361   1.387       .  A
C1359      C1370   1.381       .  A
C1359      C1362   1.396       .  A
C1360      C1374   1.389       .  A
C1360      C1363   1.417       .  A
C1361      C1364   1.376       .  A
C1362      C1368   1.376       .  A
C1363      C1371   1.387       .  A
C1364      H1377   1.082       .  S
N1365      C1366   1.360       .  A
N1365      C1500   1.441       .  S
C1366      H1367   1.082       .  S
C1368      H1378   1.082       .  S
C1368      N1369   1.353       .  A
N1369      C1370   1.357       .  A
N1369      C1466   1.429       .  S
C1370      H1376   1.082       .  S
C1371      H1373   1.082       .  S
C1371      N1372   1.352       .  A
N1372      C1374   1.354       .  A
N1372      C1449   1.438       .  S
C1374      H1375   1.082       .  S
C1379      C1381   1.538   1_565  S
C1379      C1383   1.543       .  S
C1379      C1472   1.548       .  S
C1380      C1385   1.550       .  S
C1381      C1389   1.376       .  A
C1382      C1393   1.379       .  A
C1383      C1397   1.383       .  A
C1385      C1391   1.381       .  A
C1386      C1394   1.379       .  A
C1387      H1400   1.081       .  S
N1388      C1545   1.442       .  S
C1389      H1390   1.083       .  S
C1391      H1401   1.082       .  S
C1391      N1392   1.355       .  A
N1392      C1443   1.432       .  S
C1393      H1399   1.082       .  S
C1394      H1396   1.082       .  S
N1395      C1397   1.354   1_455  A
N1395      C1441   1.431       .  S
C1397      H1398   1.082       .  S
C1402      C1404   1.542   1_565  S
C1402      C1406   1.535       .  S
C1402      C1486   1.547       .  S
C1403      C1408   1.548       .  S
C1404      C1412   1.378       .  A
C1404      C1407   1.392       .  A
C1405      C1416   1.380       .  A
C1405      C1408   1.403       .  A
C1406      C1420   1.383       .  A
C1406      C1409   1.403       .  A
C1408      C1414   1.383       .  A
C1409      C1417   1.383       .  A
C1410      H1423   1.082       .  S
C1410      N1411   1.359       .  A
N1411      C1503   1.439       .  S
C1412      H1413   1.081       .  S
C1414      H1424   1.082       .  S
C1414      N1415   1.357       .  A
N1415      C1416   1.355       .  A
N1415      C1468   1.433       .  S
C1416      H1422   1.081       .  S
C1417      H1419   1.082       .  S
C1417      N1418   1.353       .  A
N1418      C1420   1.353       .  A
N1418      C1463   1.432       .  S
C1420      H1421   1.083       .  S
O1425      C1441   1.274   1_655  A
O1425     Zn1653   2.022       .  S
C1426      O1442   1.270       .  A
C1426      O1439   1.268       .  A
C1426      C1469   1.429       .  S
O1427     Cd1434   2.076       .  S
O1428     Cd1437   2.074       .  S
O1429      C1443   1.274       .  A
O1429     Cd1433   2.073       .  S
O1430     Cd1433   2.069       .  S
Zn1431     O1647   2.022   1_554  S
Zn1431     O1442   1.979       .  S
Zn1431     O1444   2.035       .  S
Zn1431     O1436   1.944   1_655  S
O1432     Cd1659   2.075       .  S
Cd1433     O1435   2.027       .  S
Cd1434     O1438   2.034       .  S
Cd1434     O1447   2.095       .  S
O1435      C1667   1.269       .  A
O1436     Cd1437   1.995   1_455  S
Cd1437     O1654   2.075   1_554  S
Cd1437     O1439   2.021       .  S
O1438      C1445   1.269       .  A
C1440      O1444   1.275   1_455  A
C1445      O1657   1.269   1_554  A
C1445      C1464   1.430       .  S
C1446      O1447   1.278       .  A
O1448      C1464   1.271       .  A
O1448     Zn1454   1.988       .  S
C1449      O1465   1.277       .  A
C1449      O1462   1.276       .  A
O1450      C1463   1.274       .  A
O1450     Cd1457   2.064       .  S
O1451      C1469   1.268       .  A
O1451     Cd1460   2.027       .  S
O1452      C1466   1.273       .  A
O1452     Cd1456   2.062       .  S
O1453      C1464   1.268       .  A
O1453     Cd1456   2.019       .  S
Zn1454     O1465   2.045       .  S
Zn1454     O1689   2.044   1_554  S
Zn1454     O1459   1.948       .  S
O1455      C1466   1.275       .  A
O1455     Cd1460   2.076       .  S
Cd1456     O1680   2.060   1_554  S
Cd1456     O1459   1.990       .  S
Cd1457     O1461   2.089       .  S
Cd1457     O1470   2.030       .  S
Cd1457     O1681   1.994       .  S
O1458      C1468   1.272       .  A
O1458     Cd1678   2.060       .  S
O1459     Cd1679   1.994   1_554  S
O1459     Cd1460   1.996       .  S
Cd1460     O1462   2.084       .  S
O1461      C1468   1.275       .  A
C1463      O1467   1.277       .  A
O1467     Zn1676   2.044       .  S
C1469      O1692   1.269   1_554  A
O1470      C1691   1.269       .  A
C1471      C1472   1.409       .  A
C1471      C1476   1.410       .  A
C1471      H1478   1.081       .  S
C1473      C1474   1.408       .  A
C1473      N1480   1.438       .  S
C1474      H1479   1.082       .  S
C1475      C1476   1.418       .  A
C1476      N1477   1.438       .  S
N1477      H1481   1.046       .  S
N1477      H1482   1.045       .  S
N1480      H1483   1.040       .  S
N1480      H1484   1.045       .  S
C1485      C1490   1.409       .  A
C1485      H1492   1.079       .  S
C1486      C1487   1.427       .  A
C1487      C1488   1.407       .  A
C1487      N1494   1.438       .  S
C1488      C1489   1.407       .  A
C1488      H1493   1.081       .  S
C1490      N1491   1.437       .  S
N1491      H1495   1.045       .  S
N1491      H1496   1.044       .  S
N1494      H1497   1.041       .  S
N1494      H1498   1.045       .  S
C1499      C1500   1.405       .  A
C1499      C1504   1.406       .  A
C1499      H1506   1.083       .  S
C1501      C1502   1.402       .  A
C1501      N1508   1.432       .  S
C1502      H1507   1.083       .  S
C1503      C1504   1.408       .  A
C1504      N1505   1.431       .  S
N1505      H1509   1.045       .  S
N1505      H1510   1.046       .  S
N1508      H1511   1.046       .  S
N1508      H1512   1.045       .  S
C1513      C1518   1.412       .  A
C1513      H1520   1.080       .  S
C1514      C1515   1.428   1_545  A
C1515      C1516   1.407       .  A
C1515      N1522   1.439       .  S
C1516      C1517   1.406   1_565  A
C1516      H1521   1.081       .  S
C1518      N1519   1.438       .  S
N1519      H1523   1.046       .  S
N1519      H1524   1.044       .  S
N1522      H1525   1.040       .  S
N1522      H1526   1.045       .  S
C1527      C1528   1.406       .  A
C1527      C1532   1.406       .  A
C1527      H1534   1.081       .  S
C1529      C1530   1.410       .  A
C1529      N1536   1.439       .  S
C1530      H1535   1.080       .  S
C1531      C1532   1.429   1_545  A
C1532      N1533   1.439       .  S
N1533      H1537   1.045       .  S
N1533      H1538   1.040       .  S
N1536      H1539   1.044       .  S
N1536      H1540   1.046       .  S
C1541      C1546   1.408       .  A
C1541      H1548   1.083       .  S
C1543      C1544   1.406       .  A
C1543      N1550   1.437       .  S
C1544      H1549   1.083       .  S
C1546      N1547   1.437       .  S
N1547      H1551   1.045       .  S
N1547      H1552   1.046       .  S
N1550      H1553   1.046       .  S
N1550      H1554   1.046       .  S
C1555      C1558   1.558       .  S
C1556      C1560   1.534   1_545  S
C1556      C1562   1.540   1_545  S
C1556      C1736   1.549       .  S
C1558      C1569   1.389       .  A
C1559      C1573   1.380       .  A
C1560      C1563   1.379       .  A
C1561      C1567   1.387       .  A
C1562      C1570   1.381       .  A
C1563      H1576   1.082       .  S
N1564      C1764   1.441       .  S
C1565      H1566   1.083       .  S
C1567      H1577   1.082       .  S
N1568      C1569   1.352       .  A
N1568      C1668   1.436       .  S
C1569      H1575   1.082       .  S
C1570      H1572   1.082       .  S
C1570      N1571   1.356   1_655  A
N1571      C1662   1.434       .  S
C1573      H1574   1.082       .  S
C1578      C1581   1.546       .  S
C1579      C1583   1.531   1_565  S
C1579      C1585   1.549       .  S
C1579      C1750   1.544       .  S
C1580      C1583   1.387       .  A
C1581      C1592   1.381       .  A
C1581      C1584   1.396       .  A
C1582      C1596   1.389       .  A
C1582      C1585   1.417       .  A
C1583      C1586   1.376       .  A
C1584      C1590   1.376       .  A
C1585      C1593   1.387       .  A
C1586      H1599   1.082       .  S
N1587      C1588   1.360       .  A
N1587      C1722   1.441       .  S
C1588      H1589   1.082       .  S
C1590      H1600   1.082       .  S
C1590      N1591   1.353       .  A
N1591      C1592   1.357       .  A
N1591      C1688   1.429       .  S
C1592      H1598   1.082       .  S
C1593      H1595   1.082       .  S
C1593      N1594   1.352       .  A
N1594      C1596   1.354       .  A
N1594      C1671   1.438       .  S
C1596      H1597   1.082       .  S
C1601      C1603   1.538   1_565  S
C1601      C1605   1.543       .  S
C1601      C1694   1.548       .  S
C1602      C1607   1.550       .  S
C1603      C1611   1.376       .  A
C1604      C1615   1.379       .  A
C1605      C1619   1.383       .  A
C1607      C1613   1.381       .  A
C1608      C1616   1.379       .  A
C1609      H1622   1.081       .  S
N1610      C1767   1.442       .  S
C1611      H1612   1.083       .  S
C1613      H1623   1.082       .  S
C1613      N1614   1.355       .  A
N1614      C1665   1.432       .  S
C1615      H1621   1.082       .  S
C1616      H1618   1.082       .  S
N1617      C1619   1.354   1_455  A
N1617      C1663   1.431       .  S
C1619      H1620   1.082       .  S
C1624      C1626   1.542   1_565  S
C1624      C1628   1.535       .  S
C1624      C1708   1.547       .  S
C1625      C1630   1.548       .  S
C1626      C1634   1.378       .  A
C1626      C1629   1.392       .  A
C1627      C1638   1.380       .  A
C1627      C1630   1.403       .  A
C1628      C1642   1.383       .  A
C1628      C1631   1.403       .  A
C1630      C1636   1.383       .  A
C1631      C1639   1.383       .  A
C1632      H1645   1.082       .  S
C1632      N1633   1.359       .  A
N1633      C1725   1.439       .  S
C1634      H1635   1.081       .  S
C1636      H1646   1.082       .  S
C1636      N1637   1.357       .  A
N1637      C1638   1.355       .  A
N1637      C1690   1.433       .  S
C1638      H1644   1.081       .  S
C1639      H1641   1.082       .  S
C1639      N1640   1.353       .  A
N1640      C1642   1.353       .  A
N1640      C1685   1.432       .  S
C1642      H1643   1.083       .  S
O1647      C1663   1.274   1_655  A
C1648      O1664   1.270       .  A
C1648      O1661   1.268       .  A
C1648      C1691   1.429       .  S
O1649     Cd1656   2.076       .  S
O1650     Cd1659   2.074       .  S
O1651      C1665   1.274       .  A
O1651     Cd1655   2.073       .  S
O1652     Cd1655   2.069       .  S
Zn1653     O1664   1.979       .  S
Zn1653     O1666   2.035       .  S
Zn1653     O1658   1.944   1_655  S
Cd1655     O1657   2.027       .  S
Cd1656     O1660   2.034       .  S
Cd1656     O1669   2.095       .  S
O1658     Cd1659   1.995   1_455  S
Cd1659     O1661   2.021       .  S
O1660      C1667   1.269       .  A
C1662      O1666   1.275   1_455  A
C1667      C1686   1.430       .  S
C1668      O1669   1.278       .  A
O1670      C1686   1.271       .  A
O1670     Zn1676   1.988       .  S
C1671      O1687   1.277       .  A
C1671      O1684   1.276       .  A
O1672      C1685   1.274       .  A
O1672     Cd1679   2.064       .  S
O1673      C1691   1.268       .  A
O1673     Cd1682   2.027       .  S
O1674      C1688   1.273       .  A
O1674     Cd1678   2.062       .  S
O1675      C1686   1.268       .  A
O1675     Cd1678   2.019       .  S
Zn1676     O1687   2.045       .  S
Zn1676     O1681   1.948       .  S
O1677      C1688   1.275       .  A
O1677     Cd1682   2.076       .  S
Cd1678     O1681   1.990       .  S
Cd1679     O1683   2.089       .  S
Cd1679     O1692   2.030       .  S
O1680      C1690   1.272       .  A
O1681     Cd1682   1.996       .  S
Cd1682     O1684   2.084       .  S
O1683      C1690   1.275       .  A
C1685      O1689   1.277       .  A
C1693      C1694   1.409       .  A
C1693      C1698   1.410       .  A
C1693      H1700   1.081       .  S
C1695      C1696   1.408       .  A
C1695      N1702   1.438       .  S
C1696      H1701   1.082       .  S
C1697      C1698   1.418       .  A
C1698      N1699   1.438       .  S
N1699      H1703   1.046       .  S
N1699      H1704   1.045       .  S
N1702      H1705   1.040       .  S
N1702      H1706   1.045       .  S
C1707      C1712   1.409       .  A
C1707      H1714   1.079       .  S
C1708      C1709   1.427       .  A
C1709      C1710   1.407       .  A
C1709      N1716   1.438       .  S
C1710      C1711   1.407       .  A
C1710      H1715   1.081       .  S
C1712      N1713   1.437       .  S
N1713      H1717   1.045       .  S
N1713      H1718   1.044       .  S
N1716      H1719   1.041       .  S
N1716      H1720   1.045       .  S
C1721      C1722   1.405       .  A
C1721      C1726   1.406       .  A
C1721      H1728   1.083       .  S
C1723      C1724   1.402       .  A
C1723      N1730   1.432       .  S
C1724      H1729   1.083       .  S
C1725      C1726   1.408       .  A
C1726      N1727   1.431       .  S
N1727      H1731   1.045       .  S
N1727      H1732   1.046       .  S
N1730      H1733   1.046       .  S
N1730      H1734   1.045       .  S
C1735      C1740   1.412       .  A
C1735      H1742   1.080       .  S
C1736      C1737   1.428   1_545  A
C1737      C1738   1.407       .  A
C1737      N1744   1.439       .  S
C1738      C1739   1.406   1_565  A
C1738      H1743   1.081       .  S
C1740      N1741   1.438       .  S
N1741      H1745   1.046       .  S
N1741      H1746   1.044       .  S
N1744      H1747   1.040       .  S
N1744      H1748   1.045       .  S
C1749      C1750   1.406       .  A
C1749      C1754   1.406       .  A
C1749      H1756   1.081       .  S
C1751      C1752   1.410       .  A
C1751      N1758   1.439       .  S
C1752      H1757   1.080       .  S
C1753      C1754   1.429   1_545  A
C1754      N1755   1.439       .  S
N1755      H1759   1.045       .  S
N1755      H1760   1.040       .  S
N1758      H1761   1.044       .  S
N1758      H1762   1.046       .  S
C1763      C1768   1.408       .  A
C1763      H1770   1.083       .  S
C1765      C1766   1.406       .  A
C1765      N1772   1.437       .  S
C1766      H1771   1.083       .  S
C1768      N1769   1.437       .  S
N1769      H1773   1.045       .  S
N1769      H1774   1.046       .  S
N1772      H1775   1.046       .  S
N1772      H1776   1.046       .  S
