geometry optimzed in LAMMPS
_audit_creation_date              2020-11-30 
_audit_creation_method            'lammps2cif' 
_symmetry_space_group_name_H-M    'P1' 
_symmetry_Int_Tables_number       1 
_symmetry_cell_setting            triclinic 
loop_ 
_symmetry_equiv_pos_as_xyz 
  x,y,z 
_cell_length_a                    28.67954352 
_cell_length_b                    28.802761323296185 
_cell_length_c                    28.514288981901647 
_cell_angle_alpha                 89.37000093119269 
_cell_angle_beta                  89.772648481718 
_cell_angle_gamma                 92.47396504428238 
loop_ 
_atom_site_label 
_atom_site_type_symbol 
_atom_site_fract_x 
_atom_site_fract_y 
_atom_site_fract_z 
_atom_site_charge 
O1          O  0.53724683  0.03986412  0.88570445    -0.85300
O2          O  0.52461656  0.05702596  0.61593293    -0.85500
O3          O  0.62618052  0.04439026  0.74092903    -0.87200
O4          O  0.52396019  0.14276192  0.76079136    -0.85900
O5          O  0.44411009  0.14281288  0.76697236    -0.85500
O6          O  0.62636126  0.96483274  0.73685674    -0.86900
O7          O  0.56378163  0.09781965  0.67352580    -0.85400
O8          O  0.57690574  0.08150315  0.82780475    -0.84900
Zr9        Zr  0.54570277  0.06353354  0.75067848     2.84300
O10         O  0.47946116  0.06219179  0.70392924    -1.06900
O11         O  0.54688506  0.99663852  0.79772616    -1.07600
C12         C  0.56882889  0.06966173  0.87103048     1.07800
C13         C  0.55230945  0.09007156  0.63034297     1.07700
C14         C  0.64649861  0.00600125  0.73470232     1.10700
C15         C  0.48551913  0.16292619  0.76809286     1.08500
H16         H  0.57208788  0.00257561  0.68048551     0.34000
O17         O  0.54546332  0.99985814  0.70116331    -1.27900
H18         H  0.48242991  0.08493380  0.82139076     0.33700
O19         O  0.48086044  0.05902229  0.80023198    -1.29600
O20         O  0.42978188  0.93661792  0.61639986    -0.85300
O21         O  0.42175016  0.93775988  0.88432007    -0.86800
O22         O  0.57501082  0.90880837  0.67465502    -0.85400
O23         O  0.39426890  0.09600647  0.67589737    -0.85400
O24         O  0.38894471  0.08383632  0.83252223    -0.85200
O25         O  0.57730704  0.90572555  0.82062601    -0.85000
O26         O  0.43685696  0.84978044  0.74972165    -0.85300
O27         O  0.33249146  0.95239036  0.74524046    -0.84800
O28         O  0.51715897  0.85283043  0.74907099    -0.85900
O29         O  0.33377079  0.03237616  0.74502913    -0.85000
O30         O  0.53892789  0.94966169  0.61658814    -0.85400
O31         O  0.53699811  0.93808925  0.88093064    -0.85100
O32         O  0.43014078  0.04260622  0.88689116    -0.84800
O33         O  0.42784013  0.05163180  0.61924924    -0.85200
O34         O  0.39003125  0.89653190  0.67511280    -0.85500
O35         O  0.38235953  0.89899558  0.82569178    -0.86800
Zr36       Zr  0.47876247  0.99633651  0.65517120     2.83100
Zr37       Zr  0.48027932  0.99060139  0.84598836     2.83500
Zr38       Zr  0.54572200  0.93332230  0.74816755     2.84100
Zr39       Zr  0.41427029  0.06195452  0.75324777     2.83400
Zr40       Zr  0.41238112  0.92875122  0.75046833     2.84200
O41         O  0.41310450  0.99335974  0.79931686    -1.07400
O42         O  0.47850351  0.92987454  0.70214391    -1.06900
C43         C  0.40116843  0.90393050  0.63173279     1.07800
C44         C  0.39030984  0.90794950  0.86927802     1.10400
C45         C  0.56940061  0.92088933  0.63177649     1.07900
C46         C  0.40288188  0.08535901  0.63257661     1.08300
C47         C  0.40036670  0.07290152  0.87515001     1.07900
C48         C  0.56852570  0.91165397  0.86430997     1.07400
C49         C  0.47680932  0.83120259  0.75056274     1.07800
C50         C  0.31301644  0.99174523  0.74179156     1.07400
H51         H  0.47924190  0.89911957  0.81590149     0.34000
O52         O  0.47943184  0.92707916  0.79684411    -1.28500
H53         H  0.38596584  0.99570380  0.68372166     0.34100
O54         O  0.41289223  0.99615249  0.70391901    -1.29900
C55         C  0.70120858  0.20132066  0.51714000     0.87700
C56         C  0.68247614  0.17366277  0.55964039    -0.52600
C57         C  0.63526443  0.17234060  0.56318841     0.10600
C58         C  0.61076943  0.19935234  0.52412711     0.21500
C59         C  0.67634211  0.17922561  0.47477123    -0.53300
C60         C  0.62854268  0.17775461  0.47812169     0.10700
C61         C  0.68148378  0.24944831  0.52226176    -0.52800
C62         C  0.63432393  0.24865107  0.52666593     0.11200
H63         H  0.70448475  0.15614473  0.58458608     0.15800
H64         H  0.57216574  0.19880782  0.52758407     0.01500
H65         H  0.69542381  0.16398237  0.44630212     0.16100
H66         H  0.70318149  0.28125287  0.52432379     0.15900
O67         O  0.59367514  0.11956243  0.32302036    -0.85300
O68         O  0.40466937  0.92947386  0.32426778    -0.85500
O69         O  0.43451648  0.07853319  0.37539416    -0.87200
O70         O  0.54535246  0.97323836  0.38196997    -0.85900
O71         O  0.58310903  0.92961833  0.32756612    -0.85500
O72         O  0.39996335  0.11751166  0.31477183    -0.86900
O73         O  0.44318330  0.97194131  0.38107951    -0.85400
O74         O  0.54803154  0.08588028  0.38140791    -0.84900
Zr75       Zr  0.49510793  0.02874795  0.34225196     2.84300
O76         O  0.49446460  0.96036966  0.29704160    -1.06900
O77         O  0.49778129  0.09356683  0.29193117    -1.07600
C78         C  0.58159189  0.11391213  0.36646104     1.07800
C79         C  0.41468795  0.93907611  0.36740542     1.07700
C80         C  0.40453211  0.10699127  0.35857797     1.10700
C81         C  0.57296416  0.94072240  0.37015623     1.08500
H82         H  0.40285881  0.02536906  0.31108272     0.34000
O83         O  0.43073723  0.02641888  0.29204912    -1.27900
H84         H  0.58941803  0.02624754  0.31616678     0.33700
O85         O  0.56249575  0.02572138  0.29589608    -1.29600
O86         O  0.40001715  0.93841090  0.17089980    -0.85300
O87         O  0.59677425  0.12166446  0.17220499    -0.86800
O88         O  0.35152134  0.06289242  0.24806938    -0.85400
O89         O  0.53003615  0.87714966  0.24067811    -0.85400
O90         O  0.64212326  0.98747168  0.25234734    -0.85200
O91         O  0.46474285  0.17096971  0.24227456    -0.85000
O92         O  0.45001721  0.07311549  0.10874037    -0.85300
O93         O  0.55105823  0.96837830  0.11742492    -0.84800
O94         O  0.40618050  0.11221735  0.16178609    -0.85900
O95         O  0.58820631  0.92730890  0.17471982    -0.85000
O96         O  0.35050958  0.98302639  0.24896848    -0.85400
O97         O  0.54450484  0.17090963  0.25021899    -0.85100
O98         O  0.64520581  0.06731168  0.24723972    -0.84800
O99         O  0.45007585  0.87825707  0.24064705    -0.85200
O100        O  0.44411945  0.97578098  0.11336897    -0.85500
O101        O  0.56212122  0.07884598  0.11354782    -0.86800
Zr102      Zr  0.43017107  0.95932891  0.24722496     2.83100
Zr103      Zr  0.56606045  0.09150227  0.24710398     2.83500
Zr104      Zr  0.43296980  0.09138815  0.24155902     2.84100
Zr105      Zr  0.56134729  0.95795425  0.24975945     2.83400
Zr106      Zr  0.50268612  0.02568129  0.15186763     2.84200
O107        O  0.56722660  0.02460628  0.20133296    -1.07400
O108        O  0.43407981  0.02435259  0.19705519    -1.06900
C109        C  0.41024475  0.94820514  0.12770654     1.07800
C110        C  0.59122342  0.11110764  0.12862590     1.10400
C111        C  0.33073943  0.02218765  0.25088480     1.07900
C112        C  0.48873462  0.85723202  0.23715423     1.08300
C113        C  0.66388782  0.02775419  0.25117023     1.07900
C114        C  0.50570553  0.19106491  0.24607726     1.07400
C115        C  0.41747260  0.10053069  0.11945000     1.07800
C116        C  0.57816530  0.93659192  0.13146951     1.07400
H117        H  0.50364089  0.12001395  0.17652487     0.34000
O118        O  0.50185567  0.09286311  0.19667096    -1.28500
H119        H  0.49522928  0.93253163  0.18057786     0.34100
O120        O  0.49691566  0.95950716  0.20033486    -1.29900
C121        C  0.29663414  0.79715975  0.02599894     0.87700
C122        C  0.32103555  0.81896968  0.98237531    -0.52600
C123        C  0.32265661  0.86667188  0.98175368     0.10600
C124        C  0.29909174  0.88758255  0.02509416     0.21500
C125        C  0.32247517  0.81870462  0.06768380    -0.53300
C126        C  0.32414151  0.86585726  0.06692000     0.10700
C127        C  0.24827036  0.81747392  0.02747646    -0.52800
C128        C  0.24938143  0.86466474  0.02770434     0.11200
H129        H  0.33757451  0.79823626  0.95603682     0.15800
H130        H  0.30000763  0.92618720  0.02531076     0.01500
H131        H  0.33882933  0.79857576  0.09505264     0.16100
H132        H  0.21604521  0.79631248  0.03025379     0.15900
C133        C  0.67914309  0.80094190  0.99907678     0.87700
C134        C  0.65629953  0.80955086  0.04733154    -0.52600
C135        C  0.64701058  0.85524011  0.05446102     0.10600
C136        C  0.66194984  0.88764066  0.01326063     0.21500
C137        C  0.64565194  0.82129189  0.96314538    -0.53300
C138        C  0.63665753  0.86700451  0.97054967     0.10700
C139        C  0.72259185  0.83366237  0.99756352    -0.52800
C140        C  0.71342151  0.87863731  0.00576046     0.11200
H141        H  0.64799616  0.78223795  0.07295793     0.15800
H142        H  0.65619999  0.92509597  0.01847772     0.01500
H143        H  0.62999376  0.80087196  0.93509451     0.16100
H144        H  0.75776458  0.82201772  0.99230154     0.15900
C145        C  0.69869261  0.82596932  0.50197370     0.87700
C146        C  0.68909726  0.84655704  0.45274952    -0.52600
C147        C  0.64293619  0.85435832  0.44457849     0.10600
C148        C  0.61044796  0.83850562  0.48530704     0.21500
C149        C  0.67574796  0.85987562  0.53597529    -0.53300
C150        C  0.62925930  0.86629383  0.52675771     0.10700
C151        C  0.66759307  0.78151855  0.50559419    -0.52800
C152        C  0.62166851  0.78804454  0.49737121     0.11200
H153        H  0.71666974  0.85716536  0.42818422     0.15800
H154        H  0.57276425  0.84298576  0.47854330     0.01500
H155        H  0.69459863  0.87711284  0.56425585     0.16100
H156        H  0.68055686  0.74800714  0.51588733     0.15900
C157        C  0.29567576  0.22279993  0.98891384     0.87700
C158        C  0.32415399  0.21378939  0.03321501    -0.52600
C159        C  0.33745310  0.16911436  0.03784137     0.10600
C160        C  0.32068525  0.13732740  0.99704938     0.21500
C161        C  0.32605832  0.20716793  0.94794752    -0.53300
C162        C  0.33882643  0.16204334  0.95158472     0.10700
C163        C  0.25477579  0.18734531  0.99081017    -0.52800
C164        C  0.26782617  0.14288674  0.99484163     0.11200
H165        H  0.33258688  0.24036612  0.05894972     0.15800
H166        H  0.32933626  0.10045276  0.00117445     0.01500
H167        H  0.33463282  0.22906957  0.91759565     0.16100
H168        H  0.21854277  0.19649512  0.98729590     0.15900
C169        C  0.68589053  0.22379681  0.97000667     0.87700
C170        C  0.65345875  0.20442636  0.93195186    -0.52600
C171        C  0.64902812  0.15727573  0.93212886     0.10600
C172        C  0.67760174  0.13336739  0.97016150     0.21500
C173        C  0.66567593  0.20258309  0.01644193    -0.53300
C174        C  0.66037204  0.15471099  0.01624212     0.10700
C175        C  0.73186747  0.20023560  0.96192426    -0.52800
C176        C  0.72775163  0.15331005  0.96178784     0.11200
H177        H  0.63573604  0.22599766  0.90674395     0.15800
H178        H  0.67480708  0.09480155  0.96957700     0.01500
H179        H  0.65370962  0.22387417  0.04483401     0.16100
H180        H  0.76491766  0.21920187  0.95547072     0.15900
C181        C  0.27871142  0.19995567  0.49699611     0.87700
C182        C  0.29784934  0.16518369  0.46115807    -0.52600
C183        C  0.34391403  0.15539106  0.46829308     0.10600
C184        C  0.36594138  0.18082376  0.51014453     0.21500
C185        C  0.28831250  0.17810003  0.54550203    -0.53300
C186        C  0.33388746  0.16749727  0.55238635     0.10700
C187        C  0.31258353  0.24216383  0.49306830    -0.52800
C188        C  0.35790580  0.23215780  0.49948225     0.11200
H189        H  0.27732149  0.15066382  0.43251113     0.15800
H190        H  0.40341008  0.17399574  0.51520186     0.01500
H191        H  0.26118375  0.17055878  0.57150502     0.16100
H192        H  0.30175762  0.27691975  0.48435734     0.15900
C193        C  0.28478723  0.80882065  0.48928737     0.87700
C194        C  0.31119007  0.83306581  0.52891663    -0.52600
C195        C  0.35783084  0.84119774  0.52013936     0.10600
C196        C  0.37322701  0.82388074  0.47143317     0.21500
C197        C  0.29437445  0.83992697  0.44580218    -0.53300
C198        C  0.34077813  0.84836324  0.43684765     0.10700
C199        C  0.31049403  0.76474583  0.48033597    -0.52800
C200        C  0.35606257  0.77223501  0.46964100     0.11200
H201        H  0.29350102  0.84475645  0.56004633     0.15800
H202        H  0.41104923  0.82976117  0.46380533     0.01500
H203        H  0.26706359  0.85472289  0.42481726     0.16100
H204        H  0.29355951  0.73020320  0.48092872     0.15900
O205        O  0.84566589  0.77932489  0.44930983    -0.85300
O206        O  0.03380318  0.73906619  0.63220743    -0.85500
O207        O  0.89645359  0.68183878  0.57451942    -0.87200
O208        O  0.90947907  0.83698234  0.58852337    -0.85900
O209        O  0.95627814  0.89395288  0.55303780    -0.85500
O210        O  0.93465732  0.63012950  0.52855769    -0.86900
O211        O  0.95442395  0.74793319  0.63454946    -0.85400
O212        O  0.84520971  0.77402253  0.52976407    -0.84900
Zr213      Zr  0.92707405  0.76083092  0.55485073     2.84300
O214        O  0.99913951  0.80312112  0.55854266    -1.06900
O215        O  0.92427468  0.72012055  0.48416711    -1.07600
C216        C  0.82491746  0.77983083  0.48944860     1.07800
C217        C  0.99376906  0.73915186  0.65391110     1.07700
C218        C  0.90546176  0.64038790  0.56065049     1.10700
C219        C  0.92411257  0.87991081  0.58197273     1.08500
H220        H  0.98957572  0.68903077  0.57240120     0.34000
O221        O  0.99055421  0.71158421  0.54714448    -1.27900
H222        H  0.90703000  0.83527733  0.49540785     0.33700
O223        O  0.93207783  0.81409823  0.49292295    -1.29600
O224        O  0.14077051  0.76018428  0.51646407    -0.85300
O225        O  0.94541684  0.77063206  0.33908497    -0.86800
O226        O  0.03888347  0.62446747  0.52648858    -0.85400
O227        O  0.06084089  0.88396379  0.55479334    -0.85400
O228        O  0.95505627  0.90459423  0.44948512    -0.85200
O229        O  0.92444549  0.64004694  0.42720394    -0.85000
O230        O  0.08322712  0.69898629  0.38390889    -0.85300
O231        O  0.08175221  0.84930548  0.38661361    -0.84800
O232        O  0.04276463  0.63832203  0.42078320    -0.85900
O233        O  0.05251487  0.90003159  0.43955358    -0.85000
O234        O  0.08415921  0.67526745  0.57003937    -0.85400
O235        O  0.88578803  0.70194021  0.39715785    -0.85100
O236        O  0.90972066  0.85487286  0.40434691    -0.84800
O237        O  0.09617006  0.82167393  0.58793569    -0.85200
O238        O  0.13636893  0.76895373  0.43612141    -0.85500
O239        O  0.02496354  0.76562574  0.33480930    -0.86800
Zr240      Zr  0.06164273  0.75373528  0.55038166     2.83100
Zr241      Zr  0.92547750  0.77389293  0.42226352     2.83500
Zr242      Zr  0.98792569  0.67129199  0.47660385     2.84100
Zr243      Zr  0.00361607  0.85653364  0.49618064     2.83400
Zr244      Zr  0.05609681  0.77075574  0.41468824     2.84200
O245        O  0.99477244  0.81968781  0.42344842    -1.07400
O246        O  0.05700325  0.71675229  0.47759680    -1.06900
C247        C  0.15868761  0.76624766  0.47485776     1.07800
C248        C  0.98371232  0.76464689  0.31640909     1.10400
C249        C  0.07067996  0.63384891  0.55761981     1.07900
C250        C  0.08962023  0.86542961  0.58374856     1.08300
C251        C  0.92379445  0.89574513  0.41834127     1.07900
C252        C  0.89136257  0.65803187  0.40317267     1.07400
C253        C  0.07423522  0.65547556  0.39197871     1.07800
C254        C  0.07544443  0.89080758  0.40200978     1.07400
H255        H  0.98450961  0.70584644  0.38607792     0.34000
O256        O  0.98738789  0.72409043  0.41414264    -1.28500
H257        H  0.09331290  0.82729849  0.48808279     0.34100
O258        O  0.06494778  0.80799239  0.48753087    -1.29900
O259        O  0.84967561  0.24005303  0.44519195    -0.85300
O260        O  0.01855462  0.27737640  0.64732069    -0.85500
O261        O  0.90085346  0.16746937  0.58977836    -0.87200
O262        O  0.88468824  0.31903145  0.58761857    -0.85900
O263        O  0.92158753  0.38217144  0.55097878    -0.85500
O264        O  0.95165868  0.11966262  0.55371398    -0.86900
O265        O  0.94034158  0.25681586  0.64364161    -0.85400
O266        O  0.84485438  0.23467676  0.52550551    -0.84900
Zr267      Zr  0.92102531  0.24838205  0.56118704     2.84300
O268        O  0.98090096  0.30705010  0.56417993    -1.06900
O269        O  0.93055713  0.20317946  0.49459546    -1.07600
C270        C  0.82710740  0.23367841  0.48390055     1.07800
C271        C  0.97762381  0.26997655  0.66583268     1.07700
C272        C  0.91748635  0.12677509  0.58226779     1.10700
C273        C  0.89128455  0.36324468  0.58007888     1.08500
H274        H  0.99404889  0.19572640  0.59482976     0.34000
O275        O  0.99340047  0.21451818  0.56663112    -1.27900
H276        H  0.89097487  0.31160340  0.49165786     0.33700
O277        O  0.92044903  0.29676985  0.49388106    -1.29600
O278        O  0.13589303  0.26624438  0.54920084    -0.85300
O279        O  0.96511457  0.26641905  0.35026065    -0.86800
O280        O  0.06104104  0.14363591  0.55532515    -0.85400
O281        O  0.03343154  0.40270181  0.54711131    -0.85400
O282        O  0.92788700  0.38302139  0.43577502    -0.85200
O283        O  0.95485957  0.12249031  0.44377236    -0.85000
O284        O  0.09727050  0.19900549  0.41035614    -0.85300
O285        O  0.08572428  0.34915472  0.41100763    -0.84800
O286        O  0.06115554  0.13627359  0.44807480    -0.85900
O287        O  0.03276023  0.39784232  0.44291366    -0.85000
O288        O  0.08736834  0.20477034  0.60080488    -0.85400
O289        O  0.91370602  0.17281582  0.39858131    -0.85100
O290        O  0.89978942  0.32063011  0.39329832    -0.84800
O291        O  0.07973756  0.35423432  0.58895278    -0.85200
O292        O  0.14168907  0.26015738  0.46928499    -0.85500
O293        O  0.04495960  0.27443685  0.35466949    -0.86800
Zr294      Zr  0.05341460  0.27362218  0.56942849     2.83100
Zr295      Zr  0.93162124  0.25108092  0.42747063     2.83500
Zr296      Zr  0.00186825  0.16750457  0.50015682     2.84100
Zr297      Zr  0.98114247  0.35434684  0.49689038     2.83400
Zr298      Zr  0.06354497  0.27014604  0.43695302     2.84200
O299        O  0.99238979  0.30671684  0.43244380    -1.07400
O300        O  0.06091696  0.22554301  0.50478278    -1.06900
C301        C  0.15876471  0.25828680  0.51115325     1.07800
C302        C  0.00609565  0.27476712  0.33243691     1.10400
C303        C  0.08645527  0.16195176  0.58826922     1.07900
C304        C  0.06719931  0.39527244  0.57606433     1.08300
C305        C  0.90333642  0.36446685  0.40202572     1.07900
C306        C  0.92594478  0.13166476  0.41058951     1.07400
C307        C  0.09140685  0.15507805  0.41894421     1.07800
C308        C  0.06811403  0.38934845  0.41669498     1.07400
H309        H  0.00591327  0.19525468  0.40390980     0.34000
O310        O  0.00226163  0.21377255  0.43158961    -1.28500
H311        H  0.08004092  0.34147768  0.50152138     0.34100
O312        O  0.05407472  0.31905781  0.50121179    -1.29900
C313        C  0.79826220  0.50507313  0.69933638     0.87700
C314        C  0.82400029  0.46504215  0.67672861    -0.52600
C315        C  0.83324985  0.47188809  0.62988206     0.10600
C316        C  0.81573634  0.51809810  0.61055330     0.21500
C317        C  0.82900607  0.54898255  0.68873305    -0.53300
C318        C  0.83769971  0.55614689  0.64221268     0.10700
C319        C  0.75446596  0.51045634  0.66948067    -0.52800
C320        C  0.76398507  0.51789248  0.62318888     0.11200
H321        H  0.83485539  0.43489792  0.69635832     0.15800
H322        H  0.82155034  0.52304998  0.57234553     0.01500
H323        H  0.84125758  0.57315156  0.71544379     0.16100
H324        H  0.71934607  0.51044466  0.68393534     0.15900
C325        C  0.17661795  0.52521883  0.71575368     0.87700
C326        C  0.14467399  0.56242244  0.69619502    -0.52600
C327        C  0.13992446  0.56222811  0.64829510     0.10600
C328        C  0.16834835  0.52450146  0.62431408     0.21500
C329        C  0.15620614  0.47902645  0.69654641    -0.53300
C330        C  0.15083990  0.47825099  0.64885757     0.10700
C331        C  0.22263435  0.53416675  0.68983232    -0.52800
C332        C  0.21917971  0.53435505  0.64247601     0.11200
H333        H  0.12802647  0.58742629  0.71827862     0.15800
H334        H  0.16565324  0.52420969  0.58549841     0.01500
H335        H  0.14568907  0.44972553  0.71906293     0.16100
H336        H  0.25562879  0.54071151  0.70778440     0.15900
C337        C  0.78318463  0.00448329  0.30132153     0.87700
C338        C  0.79591943  0.96837917  0.33811300    -0.52600
C339        C  0.84203104  0.96950327  0.34876802     0.10600
C340        C  0.87143125  0.00736283  0.32201098     0.21500
C341        C  0.80078981  0.05143720  0.32109800    -0.53300
C342        C  0.84705620  0.05296713  0.33254891     0.10700
C343        C  0.81479320  0.99568744  0.25939436    -0.52800
C344        C  0.86089495  0.99722720  0.27021735     0.11200
H345        H  0.77106884  0.94256108  0.35283901     0.15800
H346        H  0.90935505  0.00831319  0.32943084     0.01500
H347        H  0.77836738  0.08032866  0.32674643     0.16100
H348        H  0.80184569  0.98865672  0.22429014     0.15900
C349        C  0.76899473  0.98792426  0.68361645     0.87700
C350        C  0.78705283  0.03425915  0.66135478    -0.52600
C351        C  0.83445885  0.03808107  0.65450668     0.10600
C352        C  0.85946225  0.99395022  0.67224785     0.21500
C353        C  0.78747925  0.95027775  0.65193260    -0.53300
C354        C  0.83482577  0.95253670  0.64627312     0.10700
C355        C  0.79608119  0.98310775  0.72912318    -0.52800
C356        C  0.84299113  0.98592194  0.72381189     0.11200
H357        H  0.76398791  0.06159512  0.65138355     0.15800
H358        H  0.89797731  0.99646588  0.66877748     0.01500
H359        H  0.76523856  0.92268272  0.63715886     0.16100
H360        H  0.77932465  0.97659299  0.76299105     0.15900
C361        C  0.80051526  0.51050688  0.28852448     0.87700
C362        C  0.81926862  0.55388872  0.31393460    -0.52600
C363        C  0.82092832  0.54908472  0.36165437     0.10600
C364        C  0.80212652  0.50105826  0.37955332     0.21500
C365        C  0.83189162  0.47112088  0.30609307    -0.53300
C366        C  0.83299105  0.46694957  0.35440530     0.10700
C367        C  0.75276887  0.49918834  0.31041062    -0.52800
C368        C  0.75353001  0.49272481  0.35729099     0.11200
H369        H  0.83383688  0.58413639  0.29512184     0.15800
H370        H  0.80222602  0.49727558  0.41838791     0.01500
H371        H  0.85256912  0.45050601  0.28289427     0.16100
H372        H  0.72083152  0.49492086  0.29017005     0.15900
C373        C  0.20003849  0.52349808  0.29857090     0.87700
C374        C  0.16977757  0.47794200  0.30258596    -0.52600
C375        C  0.15151278  0.46996530  0.34643543     0.10600
C376        C  0.16550745  0.50761853  0.38206276     0.21500
C377        C  0.16826146  0.56133704  0.31566093    -0.53300
C378        C  0.14974355  0.55300343  0.35948751     0.10700
C379        C  0.23709369  0.51925851  0.33664646    -0.52800
C380        C  0.21889273  0.50997266  0.38007723     0.11200
H381        H  0.16371396  0.45422558  0.27367736     0.15800
H382        H  0.15188585  0.50108097  0.41814590     0.01500
H383        H  0.16045997  0.59100429  0.29383692     0.16100
H384        H  0.27436258  0.52052087  0.32940067     0.15900
C385        C  0.20798645  0.03391703  0.30129426     0.87700
C386        C  0.18712855  0.06307944  0.34043658    -0.52600
C387        C  0.13958255  0.05637199  0.34535055     0.10600
C388        C  0.11801809  0.02073036  0.31088733     0.21500
C389        C  0.19265765  0.98339755  0.31367135    -0.53300
C390        C  0.14565662  0.97633973  0.31977815     0.10700
C391        C  0.18076235  0.04630229  0.25753704    -0.52800
C392        C  0.13405806  0.03961827  0.26202593     0.11200
H393        H  0.20810942  0.08677104  0.36187233     0.15800
H394        H  0.07957395  0.01531523  0.31437486     0.01500
H395        H  0.21720154  0.95632344  0.31993144     0.16100
H396        H  0.19724835  0.05949183  0.22535133     0.15900
C397        C  0.19541065  0.01785827  0.68690680     0.87700
C398        C  0.17581395  0.97184016  0.66593263    -0.52600
C399        C  0.12902128  0.97232974  0.65591297     0.10600
C400        C  0.10672185  0.01787118  0.66871525     0.21500
C401        C  0.18249994  0.05547810  0.65115173    -0.53300
C402        C  0.13588125  0.05467297  0.64170271     0.10700
C403        C  0.16509619  0.02651847  0.72980855    -0.52800
C404        C  0.11891999  0.02686976  0.72004321     0.11200
H405        H  0.19769070  0.94331035  0.65736200     0.15800
H406        H  0.06872546  0.01852650  0.66123936     0.01500
H407        H  0.20754409  0.07990617  0.63459115     0.16100
H408        H  0.17903912  0.03306996  0.76463384     0.15900
O409        O  0.73559017  0.66434347  0.96722217    -0.85300
O410        O  0.75274030  0.45995883  0.13605706    -0.85500
O411        O  0.66480720  0.59517103  0.09408838    -0.87200
O412        O  0.81373446  0.60827724  0.09667114    -0.85900
O413        O  0.87295038  0.57486982  0.05629596    -0.85500
O414        O  0.61002300  0.55924401  0.04649390    -0.86900
O415        O  0.75713471  0.53909314  0.14368200    -0.85400
O416        O  0.73614826  0.65680652  0.04763884    -0.84900
Zr417      Zr  0.74244841  0.57568254  0.06589425     2.84300
O418        O  0.79127289  0.51390505  0.05981481    -1.06900
O419        O  0.69948415  0.57984803  0.99657160    -1.07600
C420        C  0.73193913  0.68032428  0.00945790     1.07800
C421        C  0.75995712  0.49692720  0.15989803     1.07700
C422        C  0.62225864  0.58573209  0.08098433     1.10700
C423        C  0.85693156  0.60180246  0.08845318     1.08500
H424        H  0.67508702  0.50654486  0.08670399     0.34000
O425        O  0.69461295  0.50929709  0.05911311    -1.27900
H426        H  0.81079999  0.61596913  0.00205117     0.33700
O427        O  0.79226238  0.58728662  0.99974550    -1.29600
O428        O  0.73825845  0.36829348  0.02921526    -0.85300
O429        O  0.75367207  0.56562650  0.84868103    -0.86800
O430        O  0.61103624  0.45669457  0.03927311    -0.85400
O431        O  0.87826156  0.46806619  0.04245389    -0.85400
O432        O  0.88119543  0.58158126  0.94002180    -0.85200
O433        O  0.61732205  0.57452716  0.94046411    -0.85000
O434        O  0.66796436  0.42624382  0.88853698    -0.85300
O435        O  0.82438220  0.42599516  0.90136527    -0.84800
O436        O  0.61287800  0.46508450  0.92953018    -0.85900
O437        O  0.87863993  0.47045865  0.94261686    -0.85000
O438        O  0.66613636  0.42030844  0.08306196    -0.85400
O439        O  0.67636164  0.61811153  0.90441168    -0.85100
O440        O  0.82382650  0.62128872  0.90351289    -0.84800
O441        O  0.82058822  0.42083820  0.07643720    -0.85200
O442        O  0.73385684  0.37090411  0.94888277    -0.85500
O443        O  0.75656729  0.48603438  0.84372375    -0.86800
Zr444      Zr  0.74344363  0.44681505  0.05417371     2.83100
Zr445      Zr  0.74830736  0.58812162  0.93107939     2.83500
Zr446      Zr  0.65112099  0.51371246  0.98907371     2.84100
Zr447      Zr  0.83994656  0.52395000  0.99381151     2.83400
Zr448      Zr  0.74556686  0.45286065  0.92160468     2.84200
O449        O  0.79291805  0.52243607  0.92717546    -1.07400
O450        O  0.69670975  0.44818512  0.98715701    -1.06900
C451        C  0.73283008  0.34930436  0.98919802     1.07800
C452        C  0.75828494  0.52746846  0.82589141     1.10400
C453        C  0.62357744  0.42882431  0.07204417     1.07900
C454        C  0.86379611  0.43344931  0.06837767     1.08300
C455        C  0.86718353  0.61273545  0.91040795     1.07900
C456        C  0.63319856  0.60806540  0.91338886     1.07400
C457        C  0.62494076  0.43636260  0.89760532     1.07800
C458        C  0.86690799  0.43762263  0.91393742     1.07400
H459        H  0.68229437  0.52164883  0.89537296     0.34000
O460        O  0.70062269  0.51969951  0.92360991    -1.28500
H461        H  0.81096475  0.42752963  0.98856919     0.34100
O462        O  0.79215185  0.45447190  0.98883863    -1.29900
O463        O  0.25939422  0.64767170  0.96079935    -0.85300
O464        O  0.25193939  0.46538784  0.15800197    -0.85500
O465        O  0.19606916  0.60941325  0.10426322    -0.87200
O466        O  0.34392115  0.59320296  0.09761488    -0.85900
O467        O  0.39187521  0.54890938  0.05374630    -0.85500
O468        O  0.13106107  0.57313980  0.07177349    -0.86900
O469        O  0.25961149  0.54517786  0.15672944    -0.85400
O470        O  0.27119907  0.64999303  0.04053299    -0.84900
Zr471      Zr  0.26334706  0.57143602  0.07427210     2.84300
O472        O  0.30129392  0.50146793  0.07334360    -1.06900
O473        O  0.21042724  0.57189770  0.01162302    -1.07600
C474        C  0.26782880  0.66908393  0.99937540     1.07800
C475        C  0.25471457  0.50522458  0.17801166     1.07700
C476        C  0.15177293  0.60443742  0.09761954     1.10700
C477        C  0.38486573  0.58012989  0.08545316     1.08500
H478        H  0.18940069  0.51143164  0.11059024     0.34000
O479        O  0.20683753  0.50965897  0.08165425    -1.27900
H480        H  0.32486855  0.59300685  0.99896254     0.33700
O481        O  0.30234438  0.56727815  0.00210050    -1.29600
O482        O  0.24076545  0.35896338  0.05477483    -0.85300
O483        O  0.22917184  0.53905903  0.86001991    -0.86800
O484        O  0.11282428  0.45603708  0.07441004    -0.85400
O485        O  0.37670653  0.44244837  0.05387927    -0.85400
O486        O  0.37980951  0.54643077  0.94280553    -0.85200
O487        O  0.11737575  0.56762561  0.96890900    -0.85000
O488        O  0.15204638  0.41535081  0.92825527    -0.85300
O489        O  0.30468035  0.40537122  0.91223588    -0.84800
O490        O  0.10416871  0.46006663  0.97225904    -0.85900
O491        O  0.36925789  0.44124147  0.94603478    -0.85000
O492        O  0.16898789  0.41304053  0.10906460    -0.85400
O493        O  0.17418105  0.60161052  0.92119215    -0.85100
O494        O  0.32480087  0.58644693  0.90238915    -0.84800
O495        O  0.31829193  0.40741033  0.09892477    -0.85200
O496        O  0.23631006  0.35747259  0.97432227    -0.85500
O497        O  0.22534860  0.45933193  0.86305061    -0.86800
Zr498      Zr  0.24499742  0.43975575  0.07786040     2.83100
Zr499      Zr  0.24877515  0.56730386  0.93917502     2.83500
Zr500      Zr  0.15408237  0.51099003  0.01959992     2.84100
Zr501      Zr  0.34171276  0.49823712  0.00212009     2.83400
Zr502      Zr  0.23393074  0.43693622  0.94519008     2.84200
O503        O  0.28939029  0.49882162  0.93821962    -1.07400
O504        O  0.19237918  0.44084932  0.01592160    -1.06900
C505        C  0.24076803  0.33813441  0.01504209     1.07800
C506        C  0.22254579  0.49857987  0.84117217     1.10400
C507        C  0.12612179  0.42326170  0.10222915     1.07900
C508        C  0.36107235  0.41362128  0.08574812     1.08300
C509        C  0.36714737  0.57480332  0.91063233     1.07900
C510        C  0.13160825  0.59636163  0.93624192     1.07400
C511        C  0.11147705  0.42859353  0.94159517     1.07800
C512        C  0.34924352  0.41159663  0.91786502     1.07400
H513        H  0.17144042  0.50662856  0.92273896     0.34000
O514        O  0.19381724  0.50575700  0.94782607    -1.28500
H515        H  0.30348843  0.40817972  0.00680643     0.34100
O516        O  0.28654185  0.43639059  0.00758379    -1.29900
C517        C  0.02159424  0.70077019  0.78266796     0.87700
C518        C  0.06332209  0.67487117  0.80189559    -0.52600
C519        C  0.06594588  0.67360359  0.84967760     0.10600
C520        C  0.02678663  0.69942631  0.87424177     0.21500
C521        C  0.97832749  0.67677253  0.80737404    -0.53300
C522        C  0.98115697  0.67534718  0.85576019     0.10700
C523        C  0.02669226  0.74896626  0.80428474    -0.52800
C524        C  0.02961185  0.74882852  0.85170735     0.11200
H525        H  0.08837764  0.65829553  0.77960408     0.15800
H526        H  0.02940022  0.69953920  0.91308569     0.01500
H527        H  0.94970483  0.66023176  0.78813123     0.16100
H528        H  0.02869555  0.78088116  0.78350487     0.15900
C529        C  0.99625902  0.32039126  0.78931249     0.87700
C530        C  0.95010484  0.34257066  0.80100374    -0.52600
C531        C  0.94575819  0.35456897  0.84690023     0.10600
C532        C  0.98855661  0.34228568  0.87739141     0.21500
C533        C  0.03442382  0.35517057  0.80616149    -0.53300
C534        C  0.03113870  0.36629265  0.85238678     0.10700
C535        C  0.99908420  0.27887100  0.82288474    -0.52800
C536        C  0.99567462  0.29026270  0.86894095     0.11200
H537        H  0.92358860  0.34918247  0.77494518     0.15800
H538        H  0.98494309  0.35041476  0.91508762     0.01500
H539        H  0.06334932  0.36774957  0.78406788     0.16100
H540        H  0.00569612  0.24391563  0.81132521     0.15900
C541        C  0.49822903  0.71282261  0.80258572     0.87700
C542        C  0.44878031  0.69674892  0.81832310    -0.52600
C543        C  0.44447356  0.65055222  0.82883593     0.10600
C544        C  0.48984342  0.62460298  0.82169486     0.21500
C545        C  0.53030363  0.69743829  0.84232522    -0.53300
C546        C  0.52575054  0.65077400  0.85205121     0.10700
C547        C  0.50991681  0.68222958  0.76126605    -0.52800
C548        C  0.50570345  0.63627241  0.77162076     0.11200
H549        H  0.42048856  0.72020292  0.82295377     0.15800
H550        H  0.48713105  0.58656965  0.82857819     0.01500
H551        H  0.55466165  0.72095859  0.86029908     0.16100
H552        H  0.52079220  0.69567461  0.72696686     0.15900
C553        C  0.51151772  0.73272682  0.19141170     0.87700
C554        C  0.55149756  0.71620784  0.16053081    -0.52600
C555        C  0.55132295  0.66915841  0.15467377     0.10600
C556        C  0.51072354  0.64252069  0.18041555     0.21500
C557        C  0.46661588  0.71222407  0.16836081    -0.53300
C558        C  0.46596754  0.66493497  0.16151716     0.10700
C559        C  0.51611734  0.70557699  0.23719736    -0.52800
C560        C  0.51630706  0.65882262  0.23196841     0.11200
H561        H  0.57836358  0.73964966  0.14543280     0.15800
H562        H  0.51064369  0.60419385  0.17687583     0.01500
H563        H  0.43820798  0.73356862  0.15747717     0.16100
H564        H  0.52069998  0.72219776  0.27103154     0.15900
C565        C  0.97342116  0.31949113  0.21143787     0.87700
C566        C  0.01600090  0.34573933  0.18958316    -0.52600
C567        C  0.01364388  0.35116483  0.14178586     0.10600
C568        C  0.96821510  0.32850255  0.12081309     0.21500
C569        C  0.93134548  0.34637786  0.19533169    -0.53300
C570        C  0.92883287  0.35149691  0.14790180     0.10700
C571        C  0.96866052  0.27332682  0.18610913    -0.52800
C572        C  0.96500948  0.27747646  0.13903967     0.11200
H573        H  0.04393042  0.36057028  0.21094997     0.15800
H574        H  0.96556271  0.33185838  0.08208724     0.01500
H575        H  0.90604831  0.36047858  0.21917289     0.16100
H576        H  0.96565994  0.23993695  0.20432526     0.15900
C577        C  0.00655928  0.71285275  0.19346655     0.87700
C578        C  0.96747737  0.67561855  0.18290313    -0.52600
C579        C  0.96620777  0.66319307  0.13646373     0.10600
C580        C  0.00199891  0.68939910  0.10553052     0.21500
C581        C  0.05128852  0.69178796  0.17459808    -0.53300
C582        C  0.04849467  0.67895676  0.12854326     0.10700
C583        C  0.99726115  0.75329727  0.16008966    -0.52800
C584        C  0.99389145  0.74071448  0.11441772     0.11200
H585        H  0.94441898  0.65982359  0.20942686     0.15800
H586        H  0.99976908  0.67979193  0.06790689     0.01500
H587        H  0.08077563  0.68479595  0.19689018     0.16100
H588        H  0.99205567  0.78851553  0.17171892     0.15900
C589        C  0.47767201  0.28807372  0.81585519     0.87700
C590        C  0.52776089  0.30407329  0.83016863    -0.52600
C591        C  0.53537434  0.35142756  0.83269975     0.10600
C592        C  0.49127585  0.37827182  0.81870170     0.21500
C593        C  0.44578521  0.31167682  0.85108914    -0.53300
C594        C  0.45265406  0.35916526  0.85239459     0.10700
C595        C  0.46879042  0.31260833  0.76937105    -0.52800
C596        C  0.47535425  0.35924804  0.77036904     0.11200
H597        H  0.55426935  0.27978444  0.83938259     0.15800
H598        H  0.49596191  0.41669207  0.81892747     0.01500
H599        H  0.41985546  0.29261503  0.87244461     0.16100
H600        H  0.45646773  0.29445272  0.73822665     0.15900
C601        C  0.49366560  0.31174897  0.19675907     0.87700
C602        C  0.46320355  0.32728042  0.15622130    -0.52600
C603        C  0.46956770  0.37327817  0.14514155     0.10600
C604        C  0.50646860  0.39906586  0.17476032     0.21500
C605        C  0.54382409  0.32473934  0.18125379    -0.53300
C606        C  0.55029149  0.37032894  0.16888443     0.10700
C607        C  0.48314113  0.34423041  0.23698111    -0.52800
C608        C  0.48958779  0.38991844  0.22541757     0.11200
H609        H  0.43806863  0.30420499  0.13868596     0.15800
H610        H  0.51166509  0.43653975  0.16556376     0.01500
H611        H  0.57047332  0.29947648  0.17657413     0.16100
H612        H  0.47066860  0.33218579  0.27124228     0.15900
O613        O  0.57188609  0.40300395  0.56650012    -0.85300
O614        O  0.44471088  0.49252184  0.35472251    -0.85500
O615        O  0.46787309  0.36354202  0.46064640    -0.87200
O616        O  0.59515760  0.44339563  0.41626670    -0.85900
O617        O  0.62131486  0.51947621  0.42442680    -0.85500
O618        O  0.40996052  0.37727988  0.51421149    -0.86900
O619        O  0.49486172  0.43411905  0.36994239    -0.85400
O620        O  0.55927664  0.37770268  0.49130080    -0.84900
Zr621      Zr  0.51606079  0.43534977  0.45183658     2.84300
O622        O  0.51454521  0.51106465  0.42324160    -1.06900
O623        O  0.49017052  0.43257449  0.52983317    -1.07600
C624        C  0.57439788  0.37273277  0.53318783     1.07800
C625        C  0.46948617  0.45818989  0.34256672     1.07700
C626        C  0.43265934  0.35092576  0.48693385     1.10700
C627        C  0.62619461  0.47737487  0.41192296     1.08500
H628        H  0.41859404  0.44000410  0.43736956     0.34000
O629        O  0.43900026  0.45997021  0.45603761    -1.27900
H630        H  0.59622669  0.47136535  0.49786138     0.33700
O631        O  0.56519265  0.48297632  0.49736946    -1.29600
O632        O  0.40861321  0.61619897  0.43233852    -0.85300
O633        O  0.53678026  0.52925647  0.64365411    -0.86800
O634        O  0.34142372  0.46336221  0.49153622    -0.85400
O635        O  0.55533252  0.58970443  0.38648068    -0.85400
O636        O  0.63524228  0.55697776  0.51534913    -0.85200
O637        O  0.42626099  0.42473866  0.61591323    -0.85000
O638        O  0.37928846  0.57441620  0.57947432    -0.85300
O639        O  0.51054141  0.65579925  0.53833847    -0.84800
O640        O  0.35541131  0.49723023  0.57724234    -0.85900
O641        O  0.57034510  0.64035410  0.48751409    -0.85000
O642        O  0.35686896  0.51303335  0.42903765    -0.85400
O643        O  0.50342643  0.43606680  0.63587395    -0.85100
O644        O  0.61956852  0.50670280  0.57716279    -0.84800
O645        O  0.47857940  0.57872714  0.36474677    -0.85200
O646        O  0.42022562  0.64211709  0.50757666    -0.85500
O647        O  0.48793470  0.58906065  0.62873118    -0.86800
Zr648      Zr  0.43857991  0.53685855  0.42708918     2.83100
Zr649      Zr  0.53887420  0.48114590  0.57419333     2.83500
Zr650      Zr  0.41459395  0.45826845  0.53539179     2.84100
Zr651      Zr  0.56406512  0.55907157  0.46771165     2.83400
Zr652      Zr  0.46125239  0.58375276  0.54874032     2.84200
O653        O  0.53796464  0.55797276  0.54578911    -1.07400
O654        O  0.41318674  0.53411300  0.50474197    -1.06900
C655        C  0.40750442  0.64735552  0.46484192     1.07800
C656        C  0.51484637  0.56558446  0.65514006     1.10400
C657        C  0.32948665  0.48722782  0.45513476     1.07900
C658        C  0.52108438  0.59243592  0.35697825     1.08300
C659        C  0.64669243  0.53394877  0.55247219     1.07900
C660        C  0.46148533  0.42152433  0.64437887     1.07400
C661        C  0.34861490  0.54009327  0.58556061     1.07800
C662        C  0.54712729  0.66761881  0.51331092     1.07400
H663        H  0.45153846  0.50842463  0.61117675     0.34000
O664        O  0.46287405  0.50812117  0.57923790    -1.28500
H665        H  0.48991522  0.61559701  0.45758401     0.34100
O666        O  0.48851077  0.58477912  0.47114331    -1.29900
O667        O  0.09531901  0.93063118  0.06166032    -0.85300
O668        O  0.01139600  0.06208958  0.84907121    -0.85500
O669        O  0.05971139  0.90880931  0.91358341    -0.87200
O670        O  0.13724608  0.03544127  0.95759592    -0.85900
O671        O  0.12093902  0.09490183  0.00757474    -0.85500
O672        O  0.98326865  0.88189537  0.91919200    -0.86900
O673        O  0.07192676  0.01475457  0.86585553    -0.85400
O674        O  0.12226667  0.94403419  0.98650165    -0.84900
Zr675      Zr  0.06551655  0.98834099  0.94649898     2.84300
O676        O  0.03912024  0.06457209  0.94798664    -1.06900
O677        O  0.01629283  0.93927873  0.99122900    -1.07600
C678        C  0.12615813  0.92804898  0.02838803     1.07800
C679        C  0.04838370  0.04051149  0.83829848     1.07700
C680        C  0.02636666  0.87730645  0.90844614     1.10700
C681        C  0.14874764  0.07094427  0.98290289     1.08500
H682        H  0.99164261  0.97686607  0.88449425     0.34000
O683        O  0.99028099  0.98832384  0.91613756    -1.27900
H684        H  0.09624859  0.01500055  0.03769287     0.33700
O685        O  0.06558841  0.01468430  0.02399219    -1.29600
O686        O  0.88219442  0.09207557  0.92508287    -0.85300
O687        O  0.96918832  0.96655085  0.13946472    -0.86800
O688        O  0.90833904  0.94843326  0.88012372    -0.85400
O689        O  0.03377415  0.16187983  0.97913727    -0.85400
O690        O  0.06698875  0.08119116  0.10796126    -0.85200
O691        O  0.94758873  0.86654218  0.00590039    -0.85000
O692        O  0.84428293  0.99028143  0.03694112    -0.85300
O693        O  0.92170464  0.12022136  0.07636453    -0.84800
O694        O  0.85967878  0.93258708  0.98449193    -0.85900
O695        O  0.99829951  0.14652927  0.06930767    -0.85000
O696        O  0.92051270  0.02476447  0.85709811    -0.85400
O697        O  0.99552812  0.88278420  0.06866637    -0.85100
O698        O  0.05804281  0.00429951  0.12998783    -0.84800
O699        O  0.98560652  0.14542413  0.91657752    -0.85200
O700        O  0.85537642  0.07853244  0.00028464    -0.85500
O701        O  0.91029636  0.01619726  0.12420397    -0.86800
Zr702      Zr  0.96233357  0.06360257  0.91901571     2.83100
Zr703      Zr  0.01728713  0.96436418  0.06843688     2.83500
Zr704      Zr  0.94076543  0.93907376  0.96078984     2.84100
Zr705      Zr  0.03844900  0.08980289  0.02615622     2.83400
Zr706      Zr  0.91480068  0.04042078  0.04267647     2.84200
O707        O  0.99032163  0.03981919  0.07172930    -1.07400
O708        O  0.91414076  0.01424773  0.96498726    -1.06900
C709        C  0.85072675  0.09277099  0.95788880     1.07800
C710        C  0.93334826  0.98953331  0.15129928     1.10400
C711        C  0.90622377  0.98262219  0.85002103     1.07900
C712        C  0.01090482  0.17326874  0.94192366     1.08300
C713        C  0.07013798  0.04687928  0.13763278     1.07900
C714        C  0.97090775  0.85509839  0.04269707     1.07400
C715        C  0.83278255  0.95435907  0.01215598     1.07800
C716        C  0.95561178  0.15140582  0.08093313     1.07400
H717        H  0.92089008  0.94331564  0.05837965     0.34000
O718        O  0.94079899  0.96402678  0.03938841    -1.28500
H719        H  0.95015640  0.12016165  0.99523071     0.34100
O720        O  0.96248921  0.08955149  0.99591278    -1.29900
C721        C  0.47858764  0.42494167  0.25868448    -0.12100
C722        C  0.47064780  0.44509197  0.29437731    -0.13700
C723        C  0.46320227  0.38594695  0.72926518    -0.12100
C724        C  0.45572393  0.40161244  0.69059816    -0.13700
C725        C  0.97133087  0.80747898  0.05697152    -0.12100
C726        C  0.98014274  0.77317567  0.07903243    -0.13700
C727        C  0.94710128  0.19695921  0.09830836    -0.12100
C728        C  0.95271890  0.23622912  0.11252818    -0.13700
C729        C  0.52911730  0.61218904  0.31089998    -0.12100
C730        C  0.52538172  0.62984539  0.27246042    -0.13700
C731        C  0.51524409  0.60251756  0.73725872    -0.12100
C732        C  0.51911576  0.58139898  0.70177315    -0.13700
C733        C  0.01154076  0.22103972  0.92682004    -0.12100
C734        C  0.00489142  0.25627561  0.90497614    -0.13700
C735        C  0.03598023  0.79265530  0.87608024    -0.12100
C736        C  0.03667225  0.83210215  0.89061230    -0.13700
C737        C  0.07065399  0.39157116  0.87563057    -0.15300
C738        C  0.06967973  0.40632429  0.92002352    -0.30400
H739        H  0.10257215  0.39749313  0.85529871     0.13800
H740        H  0.03753407  0.40416473  0.94023271     0.14300
C741        C  0.09071233  0.39496299  0.12972612    -0.15300
C742        C  0.04812342  0.38094836  0.11351315    -0.30400
H743        H  0.10231480  0.38190471  0.16332632     0.13800
H744        H  0.03830869  0.39095796  0.07820272     0.14300
C745        C  0.08126254  0.64876146  0.10450039    -0.15300
C746        C  0.12277601  0.63769852  0.12174686    -0.30400
H747        H  0.06965257  0.63373292  0.07152207     0.13800
H748        H  0.13667654  0.65434362  0.15295689     0.14300
C749        C  0.10318933  0.64849621  0.87388972    -0.15300
C750        C  0.09574284  0.62519187  0.91453675    -0.30400
H751        H  0.13623926  0.64573024  0.85557608     0.13800
H752        H  0.06151172  0.62507742  0.93101568     0.14300
C753        C  0.37882917  0.38092822  0.89023366    -0.15300
C754        C  0.42447321  0.39021918  0.88152085    -0.30400
H755        H  0.36178285  0.35025039  0.87502258     0.13800
H756        H  0.44088490  0.42273416  0.89320070     0.14300
C757        C  0.40199524  0.62960938  0.85127634    -0.15300
C758        C  0.40575979  0.59477861  0.88221729    -0.30400
H759        H  0.36870495  0.64543305  0.84584363     0.13800
H760        H  0.43988032  0.58178715  0.88999609     0.14300
C761        C  0.42702640  0.60210064  0.10994570    -0.15300
C762        C  0.42489929  0.64003813  0.13790424    -0.30400
H763        H  0.46070277  0.58739048  0.10380212     0.13800
H764        H  0.39149838  0.65607934  0.14137993     0.14300
C765        C  0.39420273  0.38531541  0.11013304    -0.15300
C766        C  0.43962984  0.39757323  0.11238335    -0.30400
H767        H  0.37983745  0.35631173  0.13106906     0.13800
H768        H  0.45337299  0.42921143  0.09531958     0.14300
C769        C  0.59144659  0.38684429  0.14164931    -0.15300
C770        C  0.58525192  0.40765231  0.10008247    -0.30400
H771        H  0.62612923  0.38009054  0.15451059     0.13800
H772        H  0.54998777  0.41235620  0.08751744     0.14300
C773        C  0.58397802  0.60627482  0.10747207    -0.15300
C774        C  0.58968756  0.64719381  0.12922453    -0.30400
H775        H  0.54969879  0.58880528  0.10645915     0.13800
H776        H  0.62305647  0.66644167  0.12645691     0.14300
C777        C  0.60034801  0.63776665  0.88956711    -0.15300
C778        C  0.55519074  0.62558425  0.88491090    -0.30400
H779        H  0.61486480  0.66843767  0.87127178     0.13800
H780        H  0.54129770  0.59297596  0.89984415     0.14300
C781        C  0.58451203  0.41588664  0.86995525    -0.15300
C782        C  0.58078066  0.37264284  0.85180010    -0.30400
H783        H  0.55360654  0.43628905  0.86978324     0.13800
H784        H  0.61032878  0.35048387  0.85514483     0.14300
C785        C  0.90019095  0.40577467  0.08948105    -0.15300
C786        C  0.89132831  0.37704948  0.12585459    -0.30400
H787        H  0.93562446  0.41055720  0.07602799     0.13800
H788        H  0.85695126  0.37505901  0.14212148     0.14300
C789        C  0.90673328  0.41110143  0.89670858    -0.15300
C790        C  0.90376931  0.37852992  0.86350891    -0.30400
H791        H  0.94066693  0.41953814  0.91200056     0.13800
H792        H  0.87080496  0.37173674  0.84567406     0.14300
C793        C  0.90166963  0.64025688  0.87963293    -0.15300
C794        C  0.94784779  0.64773654  0.88808335    -0.30400
H795        H  0.88745857  0.65652027  0.84857530     0.13800
H796        H  0.96189394  0.63459560  0.92069629     0.14300
C797        C  0.88927932  0.62907206  0.11850066    -0.15300
C798        C  0.93541766  0.62704097  0.11535602    -0.30400
H799        H  0.87455837  0.65417191  0.14198656     0.13800
H800        H  0.95064852  0.60421382  0.08996655     0.14300
C801        C  0.08579434  0.03759741  0.75545838    -0.12100
C802        C  0.06478532  0.04322862  0.79120424    -0.13700
C803        C  0.08826818  0.05476135  0.18388747    -0.12100
C804        C  0.10491734  0.04994900  0.22240844    -0.13700
C805        C  0.21980005  0.53329409  0.25009909    -0.15300
C806        C  0.24779507  0.50368113  0.22909584    -0.30400
H807        H  0.20800220  0.56318003  0.23054467     0.13800
H808        H  0.25749251  0.47258777  0.24800026     0.14300
C809        C  0.28167073  0.48692545  0.44124912    -0.12100
C810        C  0.24828014  0.49598290  0.41800051    -0.13700
C811        C  0.79656553  0.51849919  0.23602546    -0.15300
C812        C  0.77212971  0.48824580  0.20932561    -0.30400
H813        H  0.80898245  0.55154948  0.22081945     0.13800
H814        H  0.76087749  0.45476555  0.22446110     0.14300
C815        C  0.71134437  0.47664519  0.38089598    -0.12100
C816        C  0.67174288  0.46940857  0.39415967    -0.13700
C817        C  0.87169680  0.97815641  0.76460451    -0.12100
C818        C  0.88772713  0.97479602  0.80368227    -0.13700
C819        C  0.91696978  0.98626397  0.19874035    -0.12100
C820        C  0.89543377  0.98962864  0.23476592    -0.13700
C821        C  0.18368284  0.52633613  0.76862584    -0.15300
C822        C  0.21128822  0.49617562  0.79055364    -0.30400
H823        H  0.16778750  0.55335519  0.78874471     0.13800
H824        H  0.22510700  0.46777405  0.77075772     0.14300
C825        C  0.30165235  0.54840326  0.60132876    -0.12100
C826        C  0.26152424  0.54436357  0.61521674    -0.13700
C827        C  0.78741415  0.49854715  0.75072801    -0.15300
C828        C  0.76706632  0.53196311  0.77521334    -0.30400
H829        H  0.79716728  0.46665696  0.76812092     0.13800
H830        H  0.75909012  0.56446454  0.75789517     0.14300
C831        C  0.72843529  0.52970685  0.59041332    -0.12100
C832        C  0.69376008  0.53661395  0.56837226    -0.13700
C833        C  0.97544897  0.31239671  0.26335349    -0.15300
C834        C  0.00853232  0.28701198  0.28275235    -0.30400
H835        H  0.94773790  0.32549981  0.28505012     0.13800
H836        H  0.03762541  0.27568884  0.26185970     0.14300
C837        C  0.97240198  0.27872971  0.71630869    -0.15300
C838        C  0.00224665  0.30803613  0.73856060    -0.30400
H839        H  0.94195403  0.26387630  0.73475097     0.13800
H840        H  0.03152961  0.32429197  0.71932694     0.14300
C841        C  0.86375382  0.43715039  0.38279820    -0.15300
C842        C  0.87678837  0.39490320  0.37013290    -0.30400
H843        H  0.87275857  0.44933690  0.41766820     0.13800
H844        H  0.86490504  0.38085602  0.33682632     0.14300
C845        C  0.86235984  0.39414675  0.60853079    -0.15300
C846        C  0.86010982  0.44012864  0.60003854    -0.30400
H847        H  0.84236889  0.37839606  0.63744369     0.13800
H848        H  0.87776514  0.45531772  0.56941603     0.14300
C849        C  0.09349417  0.43762397  0.59451957    -0.15300
C850        C  0.12868483  0.43602321  0.62590286    -0.30400
H851        H  0.08253937  0.47144513  0.58275442     0.13800
H852        H  0.13780561  0.40238030  0.63984727     0.14300
C853        C  0.09084756  0.43014373  0.39362952    -0.15300
C854        C  0.12348416  0.42775329  0.36004124    -0.30400
H855        H  0.08116915  0.46392549  0.40615903     0.13800
H856        H  0.13120514  0.39476182  0.34430717     0.14300
C857        C  0.11672339  0.13148598  0.61451278    -0.15300
C858        C  0.11377451  0.08559085  0.60867216    -0.30400
H859        H  0.13933525  0.14644137  0.64145290     0.13800
H860        H  0.08870319  0.06989770  0.58448025     0.14300
C861        C  0.89738382  0.08406335  0.60792272    -0.15300
C862        C  0.85658427  0.08183175  0.63215278    -0.30400
H863        H  0.91627455  0.05236841  0.60468077     0.13800
H864        H  0.83640697  0.11288224  0.63298403     0.14300
C865        C  0.90568264  0.09128050  0.38478919    -0.15300
C866        C  0.86955517  0.09440697  0.35511551    -0.30400
H867        H  0.91948776  0.05755789  0.39247309     0.13800
H868        H  0.85371312  0.12765755  0.34985909     0.14300
C869        C  0.11036187  0.08200767  0.37876069    -0.15300
C870        C  0.12258488  0.12530343  0.39245962    -0.30400
H871        H  0.07616411  0.06695945  0.38816060     0.13800
H872        H  0.15481888  0.14186818  0.37927082     0.14300
C873        C  0.97903610  0.75244475  0.26627606    -0.15300
C874        C  0.01108610  0.72756605  0.24421966    -0.30400
H875        H  0.94707429  0.76054162  0.24817644     0.13800
H876        H  0.04236576  0.71851782  0.26304292     0.14300
C877        C  0.99131047  0.72953511  0.70532625    -0.15300
C878        C  0.02156199  0.70365424  0.72906869    -0.30400
H879        H  0.96291435  0.74435859  0.72465328     0.13800
H880        H  0.04917963  0.68748133  0.70974992     0.14300
C881        C  0.10374000  0.62400051  0.36600673    -0.15300
C882        C  0.11541998  0.58242075  0.38298885    -0.30400
H883        H  0.12009206  0.63818191  0.33435858     0.13800
H884        H  0.10072099  0.57006874  0.41624915     0.14300
C885        C  0.09392327  0.59430883  0.58080428    -0.15300
C886        C  0.11365468  0.59887143  0.62358605    -0.30400
H887        H  0.09411400  0.56118169  0.56303014     0.13800
H888        H  0.10977992  0.63117568  0.64229613     0.14300
C889        C  0.88116070  0.59979182  0.58172739    -0.15300
C890        C  0.86141410  0.59918452  0.62412475    -0.30400
H891        H  0.88309721  0.56776953  0.56228215     0.13800
H892        H  0.86327165  0.62999230  0.64582892     0.14300
C893        C  0.85747688  0.62663988  0.37897516    -0.15300
C894        C  0.84900851  0.58183116  0.39142983    -0.30400
H895        H  0.83879205  0.64124943  0.34964368     0.13800
H896        H  0.86481970  0.56805497  0.42291611     0.14300
C897        C  0.09395729  0.93233946  0.37528084    -0.15300
C898        C  0.12563432  0.93189886  0.34041724    -0.30400
H899        H  0.08206697  0.96575346  0.38664284     0.13800
H900        H  0.14092460  0.89942505  0.33093632     0.14300
C901        C  0.90321211  0.93600612  0.39650464    -0.15300
C902        C  0.86113269  0.93213082  0.37701005    -0.30400
H903        H  0.92289697  0.96903567  0.39666973     0.13800
H904        H  0.84034531  0.89977589  0.38059575     0.14300
C905        C  0.90274354  0.91714498  0.60862558    -0.15300
C906        C  0.85816903  0.91409088  0.62261582    -0.30400
H907        H  0.92301458  0.94953271  0.61255668     0.13800
H908        H  0.83731181  0.88264549  0.61504743     0.14300
C909        C  0.11761462  0.89639132  0.61471830    -0.15300
C910        C  0.10208391  0.93755664  0.62775190    -0.30400
H911        H  0.15047519  0.88441045  0.62793812     0.13800
H912        H  0.06777473  0.94727983  0.61611134     0.14300
C913        C  0.23427468  0.79845178  0.49978203    -0.15300
C914        C  0.20875841  0.77318383  0.46959282    -0.30400
H915        H  0.21871375  0.81113931  0.53175952     0.13800
H916        H  0.22433741  0.76251619  0.43677952     0.14300
C917        C  0.38207635  0.73282370  0.45667170    -0.12100
C918        C  0.39372998  0.69328427  0.45367839    -0.13700
C919        C  0.22837104  0.21345245  0.48933593    -0.15300
C920        C  0.20792377  0.24483787  0.51694013    -0.30400
H921        H  0.20886371  0.19797353  0.46044134     0.13800
H922        H  0.22694564  0.25840597  0.54706045     0.14300
C923        C  0.39415824  0.26742863  0.49231713    -0.12100
C924        C  0.41640764  0.30339944  0.48686562    -0.13700
C925        C  0.69200997  0.27606719  0.96685664    -0.15300
C926        C  0.72489127  0.29875108  0.99178816    -0.30400
H927        H  0.67151523  0.29523494  0.94181706     0.13800
H928        H  0.74398316  0.27985853  0.01818850     0.14300
C929        C  0.76799617  0.12685174  0.95167646    -0.12100
C930        C  0.80596795  0.11079685  0.94825174    -0.13700
C931        C  0.27963684  0.27148334  0.98435554    -0.15300
C932        C  0.25100402  0.28893907  0.01648313    -0.30400
H933        H  0.29215515  0.29287963  0.95487243     0.13800
H934        H  0.24052773  0.26833812  0.04722866     0.14300
C935        C  0.19678373  0.08513793  0.98518822    -0.12100
C936        C  0.23347227  0.10584676  0.99048478    -0.13700
C937        C  0.75012408  0.81721802  0.51212042    -0.15300
C938        C  0.77379065  0.78669229  0.48655689    -0.30400
H939        H  0.76793860  0.83620843  0.53998763     0.13800
H940        H  0.75569046  0.76993441  0.45745596     0.14300
C941        C  0.58698443  0.75096303  0.50563965    -0.12100
C942        C  0.56434624  0.71518014  0.51239885    -0.13700
C943        C  0.69065996  0.75120578  0.98942820    -0.15300
C944        C  0.72131328  0.72926311  0.01620278    -0.30400
H945        H  0.67446186  0.73331928  0.95989972     0.13800
H946        H  0.73562045  0.74660298  0.04696950     0.14300
C947        C  0.75022047  0.91319329  0.01152101    -0.12100
C948        C  0.78596545  0.93605149  0.01477340    -0.13700
C949        C  0.29500469  0.74509639  0.02834424    -0.15300
C950        C  0.27353837  0.71972671  0.99529784    -0.30400
H951        H  0.31020399  0.72794658  0.05843972     0.13800
H952        H  0.25979669  0.73677009  0.96440230     0.14300
C953        C  0.16946699  0.90637057  0.03713688    -0.12100
C954        C  0.20705377  0.88917152  0.03467343    -0.13700
C955        C  0.28037204  0.01895603  0.25832475    -0.15300
C956        C  0.25969036  0.04144395  0.29322723    -0.30400
H957        H  0.26024392  0.99335363  0.23818331     0.13800
H958        H  0.27997299  0.06522317  0.31531740     0.14300
C959        C  0.71418060  0.02934827  0.25782956    -0.15300
C960        C  0.73251893  0.00116009  0.28955780    -0.30400
H961        H  0.73557942  0.05697730  0.24121586     0.13800
H962        H  0.71008871  0.97547257  0.30797780     0.14300
C963        C  0.39407531  0.90921666  0.40489270    -0.15300
C964        C  0.35771573  0.87930944  0.39826283    -0.30400
H965        H  0.40977213  0.91177690  0.43947072     0.13800
H966        H  0.33917139  0.87875432  0.36510563     0.14300
C967        C  0.59294882  0.91340339  0.40919729    -0.15300
C968        C  0.62665795  0.88238625  0.40391770    -0.30400
H969        H  0.57887778  0.91902449  0.44400371     0.13800
H970        H  0.64360673  0.87875644  0.37011392     0.14300
C971        C  0.37149952  0.12962546  0.39062312    -0.15300
C972        C  0.37296217  0.12645282  0.43761047    -0.30400
H973        H  0.34597142  0.15164583  0.37464471     0.13800
H974        H  0.40031241  0.10717750  0.45409085     0.14300
C975        C  0.48487204  0.26183110  0.20875564    -0.15300
C976        C  0.50939886  0.24123062  0.24193094    -0.30400
H977        H  0.45942596  0.24154777  0.18839728     0.13800
H978        H  0.53701572  0.26044978  0.26038348     0.14300
C979        C  0.48445076  0.80658516  0.22765334    -0.15300
C980        C  0.51419477  0.78510638  0.19920117    -0.30400
H981        H  0.45471650  0.78677879  0.24245264     0.13800
H982        H  0.54258579  0.80563066  0.18274184     0.14300
C983        C  0.63299511  0.12532276  0.05168386    -0.15300
C984        C  0.62007410  0.13993229  0.09444259    -0.30400
H985        H  0.62274070  0.09010551  0.04157951     0.13800
H986        H  0.63252194  0.17399810  0.10604552     0.14300
C987        C  0.59849282  0.91044905  0.09310020    -0.15300
C988        C  0.62478215  0.87321583  0.09731637    -0.30400
H989        H  0.59027191  0.92308038  0.05819069     0.13800
H990        H  0.63042021  0.85693002  0.13123690     0.14300
C991        C  0.38080331  0.92598440  0.09168668    -0.15300
C992        C  0.34924118  0.89213783  0.10307878    -0.30400
H993        H  0.38651684  0.93586861  0.05513779     0.13800
H994        H  0.34565461  0.87960161  0.13906089     0.14300
C995        C  0.36334450  0.15377606  0.07998146    -0.15300
C996        C  0.39104942  0.11760178  0.07875329    -0.30400
H997        H  0.36093219  0.17373344  0.11195563     0.13800
H998        H  0.39595370  0.10001341  0.04570220     0.14300
C999        C  0.75324290  0.20285484  0.51497029    -0.15300
C1000       C  0.77668841  0.22537549  0.48047624    -0.30400
H1001       H  0.77221568  0.18748727  0.54379855     0.13800
H1002       H  0.75834579  0.23903446  0.45039094     0.14300
C1003       C  0.61051380  0.14116232  0.40056441    -0.15300
C1004       C  0.59690069  0.15225163  0.44430842    -0.30400
H1005       H  0.64440786  0.15402920  0.38783240     0.13800
H1006       H  0.56172666  0.14238157  0.45591426     0.14300
C1007       C  0.59501726  0.32878442  0.54157334    -0.12100
C1008       C  0.61091618  0.29083904  0.53724367    -0.13700
C1009       C  0.26331667  0.98972794  0.73056610    -0.15300
C1010       C  0.24634118  0.01908031  0.69875088    -0.30400
H1011       H  0.24099360  0.96190582  0.74557183     0.13800
H1012       H  0.26952119  0.04519305  0.68194529     0.14300
C1013       C  0.69645054  0.01078995  0.72322982    -0.15300
C1014       C  0.71700620  0.98317907  0.69243164    -0.30400
H1015       H  0.71661221  0.03963160  0.73847069     0.13800
H1016       H  0.69654148  0.95553113  0.67548179     0.14300
C1017       C  0.38512108  0.11369299  0.59325669    -0.15300
C1018       C  0.34987188  0.14290362  0.59552643    -0.30400
H1019       H  0.40104381  0.10787612  0.55931838     0.13800
H1020       H  0.33072193  0.14631802  0.62815533     0.14300
C1021       C  0.61155915  0.14651074  0.60147407    -0.15300
C1022       C  0.57247141  0.12103341  0.59388396    -0.30400
H1023       H  0.62936412  0.14425875  0.63495918     0.13800
H1024       H  0.55705795  0.12011249  0.55910310     0.14300
C1025       C  0.60297780  0.89988287  0.60009245    -0.22500
C1026       C  0.59770194  0.89543977  0.55400474    -0.30400
H1027       H  0.63213695  0.88350975  0.61684310     0.13800
H1028       H  0.56676873  0.90818123  0.53715740     0.14300
C1029       C  0.37761957  0.87224452  0.59822372    -0.15300
C1030       C  0.38843768  0.86909846  0.55235596    -0.30400
H1031       H  0.34951920  0.85002840  0.61277811     0.13800
H1032       H  0.41868824  0.88832570  0.53793579     0.14300
C1033       C  0.49150395  0.21306878  0.77739957    -0.15300
C1034       C  0.46884064  0.23587627  0.81093705    -0.30400
H1035       H  0.51893910  0.23184629  0.75763713     0.13800
H1036       H  0.44265081  0.21756094  0.83266502     0.14300
C1037       C  0.47599509  0.78129133  0.75741459    -0.15300
C1038       C  0.50307949  0.76320487  0.79040908    -0.30400
H1039       H  0.44908497  0.75987759  0.74031508     0.13800
H1040       H  0.52786844  0.78534827  0.80961405     0.14300
C1041       C  0.37805922  0.09606671  0.91479661    -0.15300
C1042       C  0.36166833  0.13892695  0.91162225    -0.30400
H1043       H  0.37813614  0.07798075  0.94830617     0.13800
H1044       H  0.36496319  0.15783295  0.87848557     0.14300
C1045       C  0.36140934  0.88042061  0.90380038    -0.15300
C1046       C  0.34999661  0.89584827  0.94666170    -0.30400
H1047       H  0.34740930  0.84681985  0.89239936     0.13800
H1048       H  0.36085011  0.93098343  0.95652809     0.14300
C1049       C  0.59727479  0.88443483  0.89619933    -0.15300
C1050       C  0.60494853  0.89460889  0.94130430    -0.30400
H1051       H  0.61549588  0.85618178  0.88045711     0.13800
H1052       H  0.59001680  0.92511945  0.95637892     0.14300
C1053       C  0.59801678  0.09225752  0.90668244    -0.15300
C1054       C  0.62042936  0.13288253  0.89719307    -0.30400
H1055       H  0.59928728  0.07666421  0.94150880     0.13800
H1056       H  0.61565338  0.15024739  0.86361091     0.14300
loop_ 
_geom_bond_atom_site_label_1 
_geom_bond_atom_site_label_2 
_geom_bond_distance 
_geom_bond_site_symmetry_2 
_ccdc_geom_bond_type 
O1          Zr37   2.411   1_545  S
O1           C12   1.286       .  A
O2          Zr36   2.405   1_545  S
O2           C13   1.285       .  A
O3           Zr9   2.412       .  S
O3           C14   1.286       .  A
O4           Zr9   2.412       .  S
O4           C15   1.285       .  A
O5          Zr39   2.482       .  S
O5           C15   1.299       .  A
O6          Zr38   2.466       .  S
O6           C14   1.297   1_565  A
O7           Zr9   2.446       .  S
O7           C13   1.295       .  A
O8           Zr9   2.430       .  S
O8           C12   1.293       .  A
Zr9          O10   2.324       .  S
Zr9          O11   2.337   1_545  S
Zr9          O19   2.329       .  S
Zr9          O17   2.327   1_545  S
O10         Zr36   2.364   1_545  S
O10         Zr39   2.335       .  S
O11         Zr37   2.349       .  S
O11         Zr38   2.319       .  S
C12        C1053   1.460       .  S
C13        C1022   1.463       .  S
C14        C1013   1.469       .  S
C15        C1033   1.474       .  S
H16          O17   0.963   1_545  S
O17         Zr36   2.323       .  S
O17         Zr38   2.327       .  S
H18          O19   0.964       .  S
O19         Zr37   2.351   1_545  S
O19         Zr39   2.341       .  S
O20         Zr36   2.449       .  S
O20          C43   1.293       .  A
O21         Zr37   2.461       .  S
O21          C44   1.296       .  A
O22         Zr38   2.381       .  S
O22          C45   1.280       .  A
O23         Zr39   2.483       .  S
O23          C46   1.301       .  A
O24         Zr39   2.468       .  S
O24          C47   1.299       .  A
O25         Zr38   2.400       .  S
O25          C48   1.285       .  A
O26         Zr40   2.409       .  S
O26          C49   1.286       .  A
O27         Zr40   2.423       .  S
O27          C50   1.288       .  A
O28         Zr38   2.425       .  S
O28          C49   1.291       .  A
O29         Zr39   2.439       .  S
O29          C50   1.294   1_545  A
O30         Zr36   2.493       .  S
O30          C45   1.302       .  A
O31         Zr37   2.474       .  S
O31          C48   1.298       .  A
O32         Zr37   2.425   1_545  S
O32          C47   1.290       .  A
O33         Zr36   2.428   1_545  S
O33          C46   1.291       .  A
O34         Zr40   2.427       .  S
O34          C43   1.289       .  A
O35         Zr40   2.441       .  S
O35          C44   1.291       .  A
Zr36         O42   2.324       .  S
Zr36         O54   2.341       .  S
Zr37         O41   2.350       .  S
Zr37         O52   2.316       .  S
Zr38         O42   2.336       .  S
Zr38         O52   2.349       .  S
Zr39         O41   2.359   1_545  S
Zr39         O54   2.372   1_545  S
Zr40         O41   2.336       .  S
Zr40         O42   2.339       .  S
Zr40         O54   2.339       .  S
Zr40         O52   2.340       .  S
C43        C1029   1.474       .  S
C44        C1045   1.485       .  S
C45        C1025   1.471       .  S
C46        C1017   1.484       .  S
C47        C1041   1.477       .  S
C48        C1049   1.472       .  S
C49        C1037   1.448       .  S
C50        C1009   1.461       .  S
H51          O52   0.966       .  S
H53          O54   0.965       .  S
C55          C56   1.526       .  S
C55          C61   1.528       .  S
C55          C59   1.535       .  S
C55         C999   1.492       .  S
C56          H63   1.087       .  S
C56          C57   1.356       .  D
C57          C58   1.541       .  S
C57        C1021   1.463       .  S
C58          C62   1.548       .  S
C58          C60   1.552       .  S
C58          H64   1.111       .  S
C59          H65   1.085       .  S
C59          C60   1.373       .  D
C60        C1004   1.503       .  S
C61          H66   1.087       .  S
C61          C62   1.357       .  D
C62        C1008   1.447       .  S
O67        Zr103   2.442       .  S
O67          C78   1.292       .  A
O68        Zr102   2.448       .  S
O68          C79   1.294       .  A
O69         Zr75   2.490       .  S
O69          C80   1.303       .  A
O70         Zr75   2.467   1_565  S
O70          C81   1.299       .  A
O71        Zr105   2.448       .  S
O71          C81   1.294       .  A
O72        Zr104   2.429       .  S
O72          C80   1.291       .  A
O73         Zr75   2.420   1_565  S
O73          C79   1.288       .  A
O74         Zr75   2.469       .  S
O74          C78   1.297       .  A
Zr75         O76   2.365   1_545  S
Zr75         O77   2.341       .  S
Zr75         O85   2.342       .  S
Zr75         O83   2.340       .  S
O76        Zr102   2.331       .  S
O76        Zr105   2.344       .  S
O77        Zr103   2.337       .  S
O77        Zr104   2.353       .  S
C78        C1003   1.489       .  S
C79         C963   1.471       .  S
C80         C971   1.489       .  S
C81         C967   1.487       .  S
H82          O83   0.964       .  S
O83        Zr102   2.328   1_545  S
O83        Zr104   2.347       .  S
H84          O85   0.966       .  S
O85        Zr103   2.337       .  S
O85        Zr105   2.365   1_545  S
O86        Zr102   2.418       .  S
O86         C109   1.290       .  A
O87        Zr103   2.443       .  S
O87         C110   1.291       .  A
O88        Zr104   2.448       .  S
O88         C111   1.294       .  A
O89        Zr105   2.475       .  S
O89         C112   1.298       .  A
O90        Zr105   2.435       .  S
O90         C113   1.294   1_565  A
O91        Zr104   2.430       .  S
O91         C114   1.293       .  A
O92        Zr106   2.412       .  S
O92         C115   1.286       .  A
O93        Zr106   2.416   1_565  S
O93         C116   1.288       .  A
O94        Zr104   2.480       .  S
O94         C115   1.300       .  A
O95        Zr105   2.457       .  S
O95         C116   1.295       .  A
O96        Zr102   2.413       .  S
O96         C111   1.286   1_565  A
O97        Zr103   2.397       .  S
O97         C114   1.282       .  A
O98        Zr103   2.403       .  S
O98         C113   1.284       .  A
O99        Zr102   2.437       .  S
O99         C112   1.290       .  A
O100       Zr106   2.436   1_565  S
O100        C109   1.290       .  A
O101       Zr106   2.483       .  S
O101        C110   1.300       .  A
Zr102       O108   2.343   1_565  S
Zr102       O120   2.330       .  S
Zr103       O107   2.340       .  S
Zr103       O118   2.342       .  S
Zr104       O108   2.323       .  S
Zr104       O118   2.348       .  S
Zr105       O107   2.352   1_565  S
Zr105       O120   2.330       .  S
Zr106       O107   2.333       .  S
Zr106       O108   2.346       .  S
Zr106       O120   2.342   1_545  S
Zr106       O118   2.331       .  S
C109        C991   1.467       .  S
C110        C984   1.497       .  S
C111        C955   1.458       .  S
C112        C979   1.487       .  S
C113        C959   1.454       .  S
C114        C976   1.448       .  S
C115        C996   1.480       .  S
C116        C987   1.468       .  S
H117        O118   0.965       .  S
H119        O120   0.964       .  S
C121        C122   1.539   1_554  S
C121        C127   1.529       .  S
C121        C125   1.527       .  S
C121        C949   1.499       .  S
C122        H129   1.085       .  S
C122        C123   1.373       .  D
C123        C124   1.546   1_556  S
C123       C1046   1.497       .  S
C124        C128   1.546       .  S
C124        C126   1.536       .  S
C124        H130   1.111       .  S
C125        H131   1.087       .  S
C125        C126   1.357       .  D
C126        C992   1.460       .  S
C127        H132   1.087       .  S
C127        C128   1.358       .  D
C128        C954   1.444       .  S
C133        C134   1.549   1_556  S
C133        C139   1.530       .  S
C133        C137   1.536       .  S
C133        C943   1.512       .  S
C134        H141   1.086       .  S
C134        C135   1.371       .  D
C135        C136   1.540       .  S
C135        C988   1.485       .  S
C136        C140   1.524       .  S
C136        C138   1.532   1_554  S
C136        H142   1.110       .  S
C137        H143   1.085       .  S
C137        C138   1.371       .  D
C138       C1050   1.486       .  S
C139        H144   1.087       .  S
C139        C140   1.356   1_556  D
C140        C947   1.430       .  S
C145        C146   1.548       .  S
C145        C151   1.531       .  S
C145        C149   1.549       .  S
C145        C937   1.535       .  S
C146        H153   1.086       .  S
C146        C147   1.373       .  D
C147        C148   1.539       .  S
C147        C968   1.493       .  S
C148        C152   1.538       .  S
C148        C150   1.522       .  S
C148        H154   1.111       .  S
C149        H155   1.085       .  S
C149        C150   1.380       .  D
C150       C1026   1.484       .  S
C151        H156   1.087       .  S
C151        C152   1.359       .  D
C152        C941   1.445       .  S
C157        C158   1.533   1_556  S
C157        C163   1.522       .  S
C157        C161   1.537       .  S
C157        C931   1.499       .  S
C158        H165   1.087       .  S
C158        C159   1.363       .  D
C159        C160   1.553   1_554  S
C159        C995   1.488       .  S
C160        C164   1.533       .  S
C160        C162   1.549       .  S
C160        H166   1.106   1_556  S
C161        H167   1.086       .  S
C161        C162   1.368       .  D
C162       C1042   1.490       .  S
C163        H168   1.088       .  S
C163        C164   1.353       .  D
C164        C936   1.427       .  S
C169        C170   1.527       .  S
C169        C175   1.527       .  S
C169        C173   1.552   1_556  S
C169        C925   1.510       .  S
C170        H177   1.087       .  S
C170        C171   1.358       .  D
C171        C172   1.537       .  S
C171       C1054   1.460       .  S
C172        C176   1.542       .  S
C172        C174   1.545   1_556  S
C172        H178   1.111       .  S
C173        H179   1.085       .  S
C173        C174   1.381       .  D
C174        C983   1.507       .  S
C175        H180   1.087       .  S
C175        C176   1.352       .  D
C176        C929   1.440       .  S
C181        C182   1.554       .  S
C181        C187   1.526       .  S
C181        C185   1.544       .  S
C181        C919   1.527       .  S
C182        H189   1.086       .  S
C182        C183   1.378       .  D
C183        C184   1.531       .  S
C183        C972   1.491       .  S
C184        C188   1.534       .  S
C184        C186   1.547       .  S
C184        H190   1.110       .  S
C185        H191   1.086       .  S
C185        C186   1.369       .  D
C186       C1018   1.496       .  S
C187        H192   1.087       .  S
C187        C188   1.356       .  D
C188        C923   1.434       .  S
C193        C194   1.522       .  S
C193        C199   1.519       .  S
C193        C197   1.539       .  S
C193        C913   1.495       .  S
C194        H201   1.085       .  S
C194        C195   1.370       .  D
C195        C196   1.550       .  S
C195       C1030   1.491       .  S
C196        C200   1.548       .  S
C196        C198   1.544       .  S
C196        H202   1.111       .  S
C197        H203   1.086       .  S
C197        C198   1.365       .  D
C198        C964   1.476       .  S
C199        H204   1.088       .  S
C199        C200   1.349       .  D
C200        C917   1.436       .  S
O205       Zr241   2.424       .  S
O205        C216   1.288       .  A
O206       Zr240   2.489       .  S
O206        C217   1.302   1_455  A
O207       Zr213   2.461       .  S
O207        C218   1.298       .  A
O208       Zr213   2.475       .  S
O208        C219   1.300       .  A
O209       Zr243   2.404   1_655  S
O209        C219   1.284       .  A
O210       Zr242   2.392       .  S
O210        C218   1.283       .  A
O211       Zr213   2.437       .  S
O211        C217   1.292       .  A
O212       Zr213   2.501       .  S
O212        C216   1.303       .  A
Zr213       O214   2.357       .  S
Zr213       O215   2.343       .  S
Zr213       O223   2.326       .  S
Zr213       O221   2.367       .  S
O214       Zr240   2.348   1_655  S
O214       Zr243   2.338   1_655  S
O215       Zr241   2.335       .  S
O215       Zr242   2.363       .  S
C216        C938   1.490       .  S
C217        C877   1.490       .  S
C218        C889   1.458       .  S
C219        C905   1.475       .  S
H220        O221   0.964       .  S
O221       Zr240   2.330   1_655  S
O221       Zr242   2.333       .  S
H222        O223   0.965       .  S
O223       Zr241   2.339       .  S
O223       Zr243   2.345   1_655  S
O224       Zr240   2.462       .  S
O224        C247   1.298       .  A
O225       Zr241   2.441       .  S
O225        C248   1.291       .  A
O226       Zr242   2.474   1_455  S
O226        C249   1.297       .  A
O227       Zr243   2.460       .  S
O227        C250   1.297       .  A
O228       Zr243   2.402   1_655  S
O228        C251   1.284       .  A
O229       Zr242   2.453       .  S
O229        C252   1.295       .  A
O230       Zr244   2.413       .  S
O230        C253   1.287       .  A
O231       Zr244   2.472       .  S
O231        C254   1.298       .  A
O232       Zr242   2.460   1_455  S
O232        C253   1.296       .  A
O233       Zr243   2.435       .  S
O233        C254   1.290       .  A
O234       Zr240   2.437       .  S
O234        C249   1.292       .  A
O235       Zr241   2.437       .  S
O235        C252   1.291       .  A
O236       Zr241   2.444       .  S
O236        C251   1.296       .  A
O237       Zr240   2.417       .  S
O237        C250   1.287       .  A
O238       Zr244   2.387       .  S
O238        C247   1.282       .  A
O239       Zr244   2.453       .  S
O239        C248   1.295   1_455  A
Zr240       O246   2.345       .  S
Zr240       O258   2.364       .  S
Zr241       O245   2.338       .  S
Zr241       O256   2.343       .  S
Zr242       O246   2.328   1_655  S
Zr242       O256   2.330       .  S
Zr243       O245   2.350   1_455  S
Zr243       O258   2.308       .  S
Zr244       O245   2.315   1_455  S
Zr244       O246   2.362       .  S
Zr244       O258   2.358       .  S
Zr244       O256   2.337   1_455  S
C247        C914   1.448       .  S
C248        C873   1.481       .  S
C249        C885   1.494       .  S
C250        C909   1.477       .  S
C251        C901   1.458       .  S
C252        C893   1.477       .  S
C253        C881   1.470       .  S
C254        C897   1.489       .  S
H255        O256   0.964       .  S
H257        O258   0.966       .  S
O259       Zr295   2.409       .  S
O259        C270   1.285       .  A
O260       Zr294   2.437       .  S
O260        C271   1.293   1_455  A
O261       Zr267   2.504       .  S
O261        C272   1.304       .  A
O262       Zr267   2.451       .  S
O262        C273   1.295       .  A
O263       Zr297   2.462       .  S
O263        C273   1.298       .  A
O264       Zr296   2.464   1_655  S
O264        C272   1.296       .  A
O265       Zr267   2.430       .  S
O265        C271   1.290       .  A
O266       Zr267   2.432       .  S
O266        C270   1.293       .  A
Zr267       O268   2.359       .  S
Zr267       O269   2.336       .  S
Zr267       O277   2.360       .  S
Zr267       O275   2.336       .  S
O268       Zr294   2.334   1_655  S
O268       Zr297   2.341       .  S
O269       Zr295   2.346       .  S
O269       Zr296   2.333   1_655  S
C270       C1000   1.459       .  S
C271        C837   1.472       .  S
C272        C861   1.515       .  S
C273        C845   1.488       .  S
H274        O275   0.965       .  S
O275       Zr294   2.370   1_655  S
O275       Zr296   2.359   1_655  S
H276        O277   0.965       .  S
O277       Zr295   2.347       .  S
O277       Zr297   2.354       .  S
O278       Zr294   2.451       .  S
O278        C301   1.293       .  A
O279       Zr295   2.427       .  S
O279        C302   1.291   1_655  A
O280       Zr296   2.434       .  S
O280        C303   1.294       .  A
O281       Zr297   2.474   1_455  S
O281        C304   1.298       .  A
O282       Zr297   2.480       .  S
O282        C305   1.301       .  A
O283       Zr296   2.449   1_655  S
O283        C306   1.293       .  A
O284       Zr298   2.431       .  S
O284        C307   1.290       .  A
O285       Zr298   2.442       .  S
O285        C308   1.294       .  A
O286       Zr296   2.459       .  S
O286        C307   1.296       .  A
O287       Zr297   2.431   1_455  S
O287        C308   1.291       .  A
O288       Zr294   2.412       .  S
O288        C303   1.287       .  A
O289       Zr295   2.443       .  S
O289        C306   1.294       .  A
O290       Zr295   2.433       .  S
O290        C305   1.289       .  A
O291       Zr294   2.480       .  S
O291        C304   1.300       .  A
O292       Zr298   2.454       .  S
O292        C301   1.294       .  A
O293       Zr298   2.411       .  S
O293        C302   1.285       .  A
Zr294       O300   2.333       .  S
Zr294       O312   2.332       .  S
Zr295       O299   2.322       .  S
Zr295       O310   2.337   1_655  S
Zr296       O300   2.333       .  S
Zr296       O310   2.354       .  S
Zr297       O299   2.335       .  S
Zr297       O312   2.368   1_655  S
Zr298       O299   2.340   1_455  S
Zr298       O300   2.309       .  S
Zr298       O312   2.346       .  S
Zr298       O310   2.347       .  S
C301        C920   1.487       .  S
C302        C834   1.457       .  S
C303        C857   1.463       .  S
C304        C849   1.507       .  S
C305        C842   1.490       .  S
C306        C865   1.482       .  S
C307        C870   1.477       .  S
C308        C853   1.467       .  S
H309        O310   0.965       .  S
H311        O312   0.965       .  S
C313        C314   1.541       .  S
C313        C319   1.533       .  S
C313        C317   1.537       .  S
C313        C827   1.505       .  S
C314        H321   1.085       .  S
C314        C315   1.371       .  D
C315        C316   1.540       .  S
C315        C846   1.492       .  S
C316        C320   1.526       .  S
C316        C318   1.543       .  S
C316        H322   1.108       .  S
C317        H323   1.087       .  S
C317        C318   1.361       .  D
C318        C890   1.475       .  S
C319        H324   1.087       .  S
C319        C320   1.360       .  D
C320        C831   1.435       .  S
C325        C326   1.541       .  S
C325        C331   1.521       .  S
C325        C329   1.538       .  S
C325        C821   1.522       .  S
C326        H333   1.086       .  S
C326        C327   1.373       .  D
C327        C328   1.550       .  S
C327        C886   1.495       .  S
C328        C332   1.564       .  S
C328        C330   1.561       .  S
C328        H334   1.110       .  S
C329        H335   1.086       .  S
C329        C330   1.369       .  D
C330        C850   1.505       .  S
C331        H336   1.088       .  S
C331        C332   1.354       .  D
C332        C826   1.456       .  S
C337        C338   1.526   1_545  S
C337        C343   1.527   1_545  S
C337        C341   1.537       .  S
C337        C960   1.492       .  S
C338        H345   1.087       .  S
C338        C339   1.357       .  D
C339        C340   1.543   1_565  S
C339        C902   1.464       .  S
C340        C344   1.537   1_545  S
C340        C342   1.546       .  S
C340        H346   1.108       .  S
C341        H347   1.086       .  S
C341        C342   1.367       .  D
C342        C866   1.486       .  S
C343        H348   1.087       .  S
C343        C344   1.358       .  D
C344        C820   1.438       .  S
C349        C350   1.540   1_565  S
C349        C355   1.523       .  S
C349        C353   1.530       .  S
C349       C1014   1.511       .  S
C350        H357   1.086       .  S
C350        C351   1.372       .  D
C351        C352   1.566   1_545  S
C351        C862   1.519       .  S
C352        C356   1.554       .  S
C352        C354   1.556       .  S
C352        H358   1.108       .  S
C353        H359   1.087       .  S
C353        C354   1.365       .  D
C354        C906   1.485       .  S
C355        H360   1.088       .  S
C355        C356   1.352       .  D
C356        C817   1.449       .  S
C361        C362   1.530       .  S
C361        C367   1.523       .  S
C361        C365   1.558       .  S
C361        C811   1.517       .  S
C362        H369   1.085       .  S
C362        C363   1.367       .  D
C363        C364   1.544       .  S
C363        C894   1.489       .  S
C364        C368   1.544       .  S
C364        C366   1.532       .  S
C364        H370   1.112       .  S
C365        H371   1.085       .  S
C365        C366   1.382       .  D
C366        C841   1.492       .  S
C367        H372   1.088       .  S
C367        C368   1.348       .  D
C368        C815   1.439       .  S
C373        C374   1.545       .  S
C373        C379   1.530       .  S
C373        C377   1.533       .  S
C373        C805   1.511       .  S
C374        H381   1.086       .  S
C374        C375   1.367       .  D
C375        C376   1.536       .  S
C375        C854   1.476       .  S
C376        C380   1.530       .  S
C376        C378   1.537       .  S
C376        H382   1.110       .  S
C377        H383   1.083       .  S
C377        C378   1.371       .  D
C378        C882   1.488       .  S
C379        H384   1.087       .  S
C379        C380   1.361       .  D
C380        C810   1.438       .  S
C385        C386   1.539       .  S
C385        C391   1.522       .  S
C385        C389   1.539   1_545  S
C385        C956   1.506       .  S
C386        H393   1.085       .  S
C386        C387   1.375       .  D
C387        C388   1.541       .  S
C387        C869   1.489       .  S
C388        C392   1.551       .  S
C388        C390   1.552   1_545  S
C388        H394   1.111       .  S
C389        H395   1.087       .  S
C389        C390   1.365       .  D
C390        C898   1.494       .  S
C391        H396   1.088       .  S
C391        C392   1.350       .  D
C392        C804   1.444       .  S
C397        C398   1.545   1_545  S
C397        C403   1.527       .  S
C397        C401   1.538       .  S
C397       C1010   1.500       .  S
C398        H405   1.085       .  S
C398        C399   1.374       .  D
C399        C400   1.531   1_565  S
C399        C910   1.483       .  S
C400        C404   1.528       .  S
C400        C402   1.522       .  S
C400        H406   1.112       .  S
C401        H407   1.086       .  S
C401        C402   1.364       .  D
C402        C858   1.455       .  S
C403        H408   1.087       .  S
C403        C404   1.355       .  D
C404        C801   1.429       .  S
O409       Zr445   2.476       .  S
O409        C420   1.299   1_556  A
O410       Zr444   2.384       .  S
O410        C421   1.279       .  A
O411       Zr417   2.454       .  S
O411        C422   1.296       .  A
O412       Zr417   2.387       .  S
O412        C423   1.282       .  A
O413       Zr447   2.484   1_554  S
O413        C423   1.303       .  A
O414       Zr446   2.440   1_554  S
O414        C422   1.292       .  A
O415       Zr417   2.490       .  S
O415        C421   1.301       .  A
O416       Zr417   2.403       .  S
O416        C420   1.285       .  A
Zr417       O418   2.319       .  S
Zr417       O419   2.338   1_554  S
Zr417       O427   2.374   1_554  S
Zr417       O425   2.315       .  S
O418       Zr444   2.328       .  S
O418       Zr447   2.347   1_554  S
O419       Zr445   2.334       .  S
O419       Zr446   2.320       .  S
C420        C944   1.469       .  S
C421        C812   1.475       .  S
C422        C773   1.478       .  S
C423        C797   1.473       .  S
H424        O425   0.964       .  S
O425       Zr444   2.333       .  S
O425       Zr446   2.364   1_554  S
H426        O427   0.966   1_554  S
O427       Zr445   2.333       .  S
O427       Zr447   2.334       .  S
O428       Zr444   2.377       .  S
O428        C451   1.278   1_554  A
O429       Zr445   2.450       .  S
O429        C452   1.294       .  A
O430       Zr446   2.417   1_554  S
O430        C453   1.288       .  A
O431       Zr447   2.416   1_554  S
O431        C454   1.288       .  A
O432       Zr447   2.503       .  S
O432        C455   1.303       .  A
O433       Zr446   2.456       .  S
O433        C456   1.296       .  A
O434       Zr448   2.513       .  S
O434        C457   1.306       .  A
O435       Zr448   2.488       .  S
O435        C458   1.303       .  A
O436       Zr446   2.446       .  S
O436        C457   1.293       .  A
O437       Zr447   2.433       .  S
O437        C458   1.292       .  A
O438       Zr444   2.450       .  S
O438        C453   1.295       .  A
O439       Zr445   2.395       .  S
O439        C456   1.283       .  A
O440       Zr445   2.452       .  S
O440        C455   1.293       .  A
O441       Zr444   2.450       .  S
O441        C454   1.295       .  A
O442       Zr448   2.486       .  S
O442        C451   1.301       .  A
O443       Zr448   2.422       .  S
O443        C452   1.291       .  A
Zr444       O450   2.339   1_554  S
Zr444       O462   2.327   1_554  S
Zr445       O449   2.333       .  S
Zr445       O460   2.362       .  S
Zr446       O450   2.343       .  S
Zr446       O460   2.341       .  S
Zr447       O449   2.334       .  S
Zr447       O462   2.382       .  S
Zr448       O449   2.379       .  S
Zr448       O450   2.331       .  S
Zr448       O462   2.341       .  S
Zr448       O460   2.364       .  S
C451        C926   1.465       .  S
C452        C828   1.469       .  S
C453        C770   1.464       .  S
C454        C785   1.467       .  S
C455        C793   1.512       .  S
C456        C777   1.464       .  S
C457        C781   1.507       .  S
C458        C789   1.486       .  S
H459        O460   0.966       .  S
H461        O462   0.964       .  S
O463       Zr499   2.409       .  S
O463        C474   1.286       .  A
O464       Zr498   2.416       .  S
O464        C475   1.287       .  A
O465       Zr471   2.417       .  S
O465        C476   1.287       .  A
O466       Zr471   2.464       .  S
O466        C477   1.296       .  A
O467       Zr501   2.500       .  S
O467        C477   1.303       .  A
O468       Zr500   2.451       .  S
O468        C476   1.296       .  A
O469       Zr471   2.462       .  S
O469        C475   1.297       .  A
O470       Zr471   2.450       .  S
O470        C474   1.296   1_554  A
Zr471       O472   2.332       .  S
Zr471       O473   2.349       .  S
Zr471       O481   2.345       .  S
Zr471       O479   2.362       .  S
O472       Zr498   2.351       .  S
O472       Zr501   2.339       .  S
O473       Zr499   2.344   1_554  S
O473       Zr500   2.342       .  S
C474        C950   1.464       .  S
C475        C806   1.469       .  S
C476        C746   1.470       .  S
C477        C761   1.517       .  S
H478        O479   0.966       .  S
O479       Zr498   2.336       .  S
O479       Zr500   2.334       .  S
H480        O481   0.965   1_556  S
O481       Zr499   2.367   1_554  S
O481       Zr501   2.329       .  S
O482       Zr498   2.423       .  S
O482        C505   1.288       .  A
O483       Zr499   2.466       .  S
O483        C506   1.296       .  A
O484       Zr500   2.473       .  S
O484        C507   1.297       .  A
O485       Zr501   2.422       .  S
O485        C508   1.290       .  A
O486       Zr501   2.405   1_556  S
O486        C509   1.286       .  A
O487       Zr500   2.443   1_556  S
O487        C510   1.292       .  A
O488       Zr502   2.454       .  S
O488        C511   1.297       .  A
O489       Zr502   2.447       .  S
O489        C512   1.294       .  A
O490       Zr500   2.429   1_556  S
O490        C511   1.289       .  A
O491       Zr501   2.457   1_556  S
O491        C512   1.296       .  A
O492       Zr498   2.441       .  S
O492        C507   1.291       .  A
O493       Zr499   2.449       .  S
O493        C510   1.295       .  A
O494       Zr499   2.454       .  S
O494        C509   1.296       .  A
O495       Zr498   2.411       .  S
O495        C508   1.286       .  A
O496       Zr502   2.430       .  S
O496        C505   1.291   1_556  A
O497       Zr502   2.439       .  S
O497        C506   1.291       .  A
Zr498       O504   2.328       .  S
Zr498       O516   2.332       .  S
Zr499       O503   2.334       .  S
Zr499       O514   2.331       .  S
Zr500       O504   2.344       .  S
Zr500       O514   2.348   1_554  S
Zr501       O503   2.365   1_554  S
Zr501       O516   2.334       .  S
Zr502       O503   2.343       .  S
Zr502       O504   2.345   1_556  S
Zr502       O516   2.338   1_556  S
Zr502       O514   2.336       .  S
C505        C932   1.460       .  S
C506        C822   1.482       .  S
C507        C741   1.489       .  S
C508        C765   1.453       .  S
C509        C758   1.463       .  S
C510        C750   1.483       .  S
C511        C738   1.475       .  S
C512        C753   1.482       .  S
H513        O514   0.964       .  S
H515        O516   0.965       .  S
C517        C518   1.537       .  S
C517        C523   1.527       .  S
C517        C521   1.556   1_455  S
C517        C878   1.530       .  S
C518        H525   1.087       .  S
C518        C519   1.365       .  D
C519        C520   1.544       .  S
C519        C749   1.484       .  S
C520        C524   1.554       .  S
C520        C522   1.551   1_455  S
C520        H526   1.110       .  S
C521        H527   1.085       .  S
C521        C522   1.383       .  D
C522        C794   1.518       .  S
C523        H528   1.087       .  S
C523        C524   1.355       .  D
C524        C735   1.453       .  S
C529        C530   1.532       .  S
C529        C535   1.529       .  S
C529        C533   1.534   1_655  S
C529        C838   1.505   1_655  S
C530        H537   1.087       .  S
C530        C531   1.364       .  D
C531        C532   1.558       .  S
C531        C790   1.492       .  S
C532        C536   1.542       .  S
C532        C534   1.545   1_655  S
C532        H538   1.108       .  S
C533        H539   1.087       .  S
C533        C534   1.364       .  D
C534        C737   1.483       .  S
C535        H540   1.087   1_655  S
C535        C536   1.361       .  D
C536        C734   1.444   1_655  S
C541        C542   1.536       .  S
C541        C547   1.524       .  S
C541        C545   1.536       .  S
C541       C1038   1.489       .  S
C542        H549   1.087       .  S
C542        C543   1.361       .  D
C543        C544   1.542       .  S
C543        C757   1.476       .  S
C544        C548   1.526       .  S
C544        C546   1.527       .  S
C544        H550   1.110       .  S
C545        H551   1.086       .  S
C545        C546   1.370       .  D
C546        C778   1.470       .  S
C547        H552   1.087       .  S
C547        C548   1.353       .  D
C548        C731   1.422       .  S
C553        C554   1.538       .  S
C553        C559   1.524       .  S
C553        C557   1.546       .  S
C553        C980   1.526       .  S
C554        H561   1.087       .  S
C554        C555   1.367       .  D
C555        C556   1.545       .  S
C555        C774   1.484       .  S
C556        C560   1.555       .  S
C556        C558   1.557       .  S
C556        H562   1.110       .  S
C557        H563   1.086       .  S
C557        C558   1.377       .  D
C558        C762   1.516       .  S
C559        H564   1.088       .  S
C559        C560   1.357       .  D
C560        C730   1.448       .  S
C565        C566   1.535   1_655  S
C565        C571   1.521       .  S
C565        C569   1.531       .  S
C565        C833   1.494       .  S
C566        H573   1.084       .  S
C566        C567   1.372       .  D
C567        C568   1.556   1_455  S
C567        C742   1.506       .  S
C568        C572   1.552       .  S
C568        C570   1.543       .  S
C568        H574   1.111       .  S
C569        H575   1.087       .  S
C569        C570   1.361       .  D
C570        C786   1.469       .  S
C571        H576   1.088       .  S
C571        C572   1.351       .  D
C572        C728   1.447       .  S
C577        C578   1.550   1_455  S
C577        C583   1.529   1_455  S
C577        C581   1.540       .  S
C577        C874   1.517       .  S
C578        H585   1.086       .  S
C578        C579   1.376       .  D
C579        C580   1.521   1_655  S
C579        C798   1.471       .  S
C580        C584   1.530   1_455  S
C580        C582   1.529       .  S
C580        H586   1.112   1_455  S
C581        H587   1.084       .  S
C581        C582   1.370       .  D
C582        C745   1.479       .  S
C583        H588   1.087       .  S
C583        C584   1.358       .  D
C584        C726   1.436       .  S
C589        C590   1.547       .  S
C589        C595   1.523       .  S
C589        C593   1.539       .  S
C589       C1034   1.522       .  S
C590        H597   1.086       .  S
C590        C591   1.375       .  D
C591        C592   1.562       .  S
C591        C782   1.520       .  S
C592        C596   1.552       .  S
C592        C594   1.543       .  S
C592        H598   1.109       .  S
C593        H599   1.086       .  S
C593        C594   1.374       .  D
C594        C754   1.489       .  S
C595        H600   1.088       .  S
C595        C596   1.349       .  D
C596        C723   1.447       .  S
C601        C602   1.526       .  S
C601        C607   1.525       .  S
C601        C605   1.533       .  S
C601        C975   1.485       .  S
C602        H609   1.086       .  S
C602        C603   1.363       .  D
C603        C604   1.529       .  S
C603        C766   1.464       .  S
C604        C608   1.538       .  S
C604        C606   1.544       .  S
C604        H610   1.112       .  S
C605        H611   1.087       .  S
C605        C606   1.361       .  D
C606        C769   1.469       .  S
C607        H612   1.087       .  S
C607        C608   1.358       .  D
C608        C721   1.436       .  S
O613       Zr649   2.491       .  S
O613        C624   1.300       .  A
O614       Zr648   2.448       .  S
O614        C625   1.292       .  A
O615       Zr621   2.447       .  S
O615        C626   1.292       .  A
O616       Zr621   2.482       .  S
O616        C627   1.299       .  A
O617       Zr651   2.387       .  S
O617        C627   1.281       .  A
O618       Zr650   2.414       .  S
O618        C626   1.287       .  A
O619       Zr621   2.416       .  S
O619        C625   1.287       .  A
O620       Zr621   2.389       .  S
O620        C624   1.281       .  A
Zr621       O622   2.322       .  S
Zr621       O623   2.341       .  S
Zr621       O631   2.332       .  S
Zr621       O629   2.353       .  S
O622       Zr648   2.335       .  S
O622       Zr651   2.328       .  S
O623       Zr649   2.322       .  S
O623       Zr650   2.326       .  S
C624       C1007   1.438       .  S
C625        C722   1.430       .  S
C626        C924   1.427       .  S
C627        C816   1.428       .  S
H628        O629   0.968       .  S
O629       Zr648   2.355       .  S
O629       Zr650   2.365       .  S
H630        O631   0.964       .  S
O631       Zr649   2.313       .  S
O631       Zr651   2.342       .  S
O632       Zr648   2.482       .  S
O632        C655   1.298       .  A
O633       Zr649   2.432       .  S
O633        C656   1.289       .  A
O634       Zr650   2.456       .  S
O634        C657   1.294       .  A
O635       Zr651   2.487       .  S
O635        C658   1.300       .  A
O636       Zr651   2.459       .  S
O636        C659   1.294       .  A
O637       Zr650   2.510       .  S
O637        C660   1.304       .  A
O638       Zr652   2.508       .  S
O638        C661   1.304       .  A
O639       Zr652   2.474       .  S
O639        C662   1.298       .  A
O640       Zr650   2.396       .  S
O640        C661   1.283       .  A
O641       Zr651   2.414       .  S
O641        C662   1.287       .  A
O642       Zr648   2.413       .  S
O642        C657   1.287       .  A
O643       Zr649   2.374       .  S
O643        C660   1.278       .  A
O644       Zr649   2.400       .  S
O644        C659   1.284       .  A
O645       Zr648   2.397       .  S
O645        C658   1.283       .  A
O646       Zr652   2.393       .  S
O646        C655   1.283       .  A
O647       Zr652   2.413       .  S
O647        C656   1.288       .  A
Zr648       O654   2.328       .  S
Zr648       O666   2.327       .  S
Zr649       O653   2.349       .  S
Zr649       O664   2.350       .  S
Zr650       O654   2.346       .  S
Zr650       O664   2.329       .  S
Zr651       O653   2.345       .  S
Zr651       O666   2.322       .  S
Zr652       O653   2.354       .  S
Zr652       O654   2.324       .  S
Zr652       O666   2.343       .  S
Zr652       O664   2.339       .  S
C655        C918   1.430       .  S
C656        C732   1.414       .  S
C657        C809   1.429       .  S
C658        C729   1.440       .  S
C659        C832   1.425       .  S
C660        C724   1.438       .  S
C661        C825   1.449       .  S
C662        C942   1.436       .  S
H663        O664   0.966       .  S
H665        O666   0.963       .  S
O667       Zr703   2.486       .  S
O667        C678   1.299       .  A
O668       Zr702   2.438   1_455  S
O668        C679   1.290       .  A
O669       Zr675   2.484       .  S
O669        C680   1.299       .  A
O670       Zr675   2.438   1_545  S
O670        C681   1.290       .  A
O671       Zr705   2.420       .  S
O671        C681   1.289   1_554  A
O672       Zr704   2.410       .  S
O672        C680   1.285   1_655  A
O673       Zr675   2.418   1_545  S
O673        C679   1.288       .  A
O674       Zr675   2.396       .  S
O674        C678   1.282   1_556  A
Zr675       O676   2.354   1_565  S
Zr675       O677   2.322       .  S
Zr675       O685   2.344   1_566  S
Zr675       O683   2.328   1_455  S
O676       Zr702   2.354   1_455  S
O676       Zr705   2.352   1_556  S
O677       Zr703   2.324   1_556  S
O677       Zr704   2.337   1_455  S
C678        C953   1.436       .  S
C679        C802   1.421       .  S
C680        C736   1.445       .  S
C681        C935   1.422       .  S
H682        O683   0.965       .  S
O683       Zr702   2.346   1_565  S
O683       Zr704   2.329       .  S
H684        O685   0.963       .  S
O685       Zr703   2.323   1_545  S
O685       Zr705   2.332       .  S
O686       Zr702   2.479       .  S
O686        C709   1.298       .  A
O687       Zr703   2.449   1_655  S
O687        C710   1.292       .  A
O688       Zr704   2.501       .  S
O688        C711   1.303       .  A
O689       Zr705   2.468   1_556  S
O689        C712   1.296       .  A
O690       Zr705   2.488       .  S
O690        C713   1.300       .  A
O691       Zr704   2.457   1_554  S
O691        C714   1.294       .  A
O692       Zr706   2.441   1_565  S
O692        C715   1.291       .  A
O693       Zr706   2.501       .  S
O693        C716   1.303       .  A
O694       Zr704   2.418       .  S
O694        C715   1.288   1_556  A
O695       Zr705   2.388   1_655  S
O695        C716   1.281       .  A
O696       Zr702   2.398       .  S
O696        C711   1.283   1_545  A
O697       Zr703   2.405   1_655  S
O697        C714   1.285       .  A
O698       Zr703   2.390   1_545  S
O698        C713   1.281       .  A
O699       Zr702   2.422       .  S
O699        C712   1.288   1_655  A
O700       Zr706   2.392       .  S
O700        C709   1.282   1_554  A
O701       Zr706   2.421       .  S
O701        C710   1.288   1_545  A
Zr702       O708   2.329       .  S
Zr702       O720   2.324       .  S
Zr703       O707   2.341   1_465  S
Zr703       O718   2.348   1_455  S
Zr704       O708   2.331   1_565  S
Zr704       O718   2.361   1_556  S
Zr705       O707   2.332   1_455  S
Zr705       O720   2.346   1_454  S
Zr706       O707   2.323       .  S
Zr706       O708   2.348   1_554  S
Zr706       O720   2.330   1_554  S
Zr706       O718   2.356   1_545  S
C709        C930   1.432       .  S
C710        C819   1.431       .  S
C711        C818   1.442       .  S
C712        C733   1.437       .  S
C713        C803   1.436       .  S
C714        C725   1.427       .  S
C715        C948   1.423       .  S
C716        C727   1.438       .  S
H717        O718   0.968       .  S
H719        O720   0.964       .  S
C721        C722   1.203       .  T
C723        C724   1.210       .  T
C725        C726   1.202       .  T
C727        C728   1.210       .  T
C729        C730   1.210       .  T
C731        C732   1.194       .  T
C733        C734   1.208       .  T
C735        C736   1.213       .  T
C737        H739   1.088       .  S
C737        C738   1.340       .  D
C738        H740   1.084       .  S
C741        H743   1.084       .  S
C741        C742   1.354       .  D
C742        H744   1.086       .  S
C745        H747   1.087       .  S
C745        C746   1.340       .  D
C746        H748   1.085       .  S
C749        H751   1.087       .  S
C749        C750   1.345       .  D
C750        H752   1.087       .  S
C753        H755   1.087       .  S
C753        C754   1.346       .  D
C754        H756   1.086       .  S
C757        H759   1.086       .  S
C757        C758   1.337       .  D
C758        H760   1.085       .  S
C761        H763   1.086       .  S
C761        C762   1.363       .  D
C762        H764   1.086       .  S
C765        H767   1.087       .  S
C765        C766   1.337       .  D
C766        H768   1.086       .  S
C769        H771   1.086       .  S
C769        C770   1.338       .  D
C770        H772   1.088       .  S
C773        H775   1.086       .  S
C773        C774   1.342       .  D
C774        H776   1.087       .  S
C777        H779   1.087       .  S
C777        C778   1.335       .  D
C778        H780   1.086       .  S
C781        H783   1.084       .  S
C781        C782   1.354       .  D
C782        H784   1.087       .  S
C785        H787   1.087       .  S
C785        C786   1.336       .  D
C786        H788   1.087       .  S
C789        H791   1.087       .  S
C789        C790   1.340       .  D
C790        H792   1.087       .  S
C793        H795   1.086       .  S
C793        C794   1.356       .  D
C794        H796   1.086       .  S
C797        H799   1.088       .  S
C797        C798   1.330       .  D
C798        H800   1.086       .  S
C801        C802   1.198       .  T
C803        C804   1.208       .  T
C805        H807   1.087       .  S
C805        C806   1.341       .  D
C806        H808   1.087       .  S
C809        C810   1.203       .  T
C811        H813   1.087       .  S
C811        C812   1.340       .  D
C812        H814   1.088       .  S
C815        C816   1.205       .  T
C817        C818   1.212       .  T
C819        C820   1.204       .  T
C821        H823   1.087       .  S
C821        C822   1.350       .  D
C822        H824   1.087       .  S
C825        C826   1.216       .  T
C827        H829   1.087       .  S
C827        C828   1.347       .  D
C828        H830   1.087       .  S
C831        C832   1.201       .  T
C833        H835   1.088       .  S
C833        C834   1.340   1_655  D
C834        H836   1.087       .  S
C837        H839   1.087       .  S
C837        C838   1.342   1_655  D
C838        H840   1.087       .  S
C841        H843   1.086       .  S
C841        C842   1.341       .  D
C842        H844   1.087       .  S
C845        H847   1.086       .  S
C845        C846   1.348       .  D
C846        H848   1.086       .  S
C849        H851   1.086       .  S
C849        C850   1.353       .  D
C850        H852   1.086       .  S
C853        H855   1.087       .  S
C853        C854   1.341       .  D
C854        H856   1.086       .  S
C857        H859   1.088       .  S
C857        C858   1.333       .  D
C858        H860   1.086       .  S
C861        H863   1.086       .  S
C861        C862   1.355       .  D
C862        H864   1.086       .  S
C865        H867   1.085       .  S
C865        C866   1.346       .  D
C866        H868   1.087       .  S
C869        H871   1.086       .  S
C869        C870   1.343       .  D
C870        H872   1.086       .  S
C873        H875   1.087       .  S
C873        C874   1.348   1_655  D
C874        H876   1.087       .  S
C877        H879   1.087       .  S
C877        C878   1.348   1_655  D
C878        H880   1.087       .  S
C881        H883   1.083       .  S
C881        C882   1.343       .  D
C882        H884   1.086       .  S
C885        H887   1.086       .  S
C885        C886   1.352       .  D
C886        H888   1.087       .  S
C889        H891   1.085       .  S
C889        C890   1.333       .  D
C890        H892   1.087       .  S
C893        H895   1.086       .  S
C893        C894   1.346       .  D
C894        H896   1.086       .  S
C897        H899   1.087       .  S
C897        C898   1.345       .  D
C898        H900   1.086       .  S
C901        H903   1.085       .  S
C901        C902   1.332       .  D
C902        H904   1.088       .  S
C905        H907   1.085       .  S
C905        C906   1.337       .  D
C906        H908   1.088       .  S
C909        H911   1.085       .  S
C909        C910   1.340       .  D
C910        H912   1.087       .  S
C913        H915   1.087       .  S
C913        C914   1.334       .  D
C914        H916   1.088       .  S
C917        C918   1.204       .  T
C919        H921   1.087       .  S
C919        C920   1.356       .  D
C920        H922   1.087       .  S
C923        C924   1.201       .  T
C925        H927   1.088       .  S
C925        C926   1.336       .  D
C926        H928   1.087   1_556  S
C929        C930   1.205       .  T
C931        H933   1.087       .  S
C931        C932   1.344   1_556  D
C932        H934   1.087       .  S
C935        C936   1.198       .  T
C937        H939   1.086       .  S
C937        C938   1.352       .  D
C938        H940   1.087       .  S
C941        C942   1.207       .  T
C943        H945   1.087       .  S
C943        C944   1.341   1_556  D
C944        H946   1.087       .  S
C947        C948   1.199       .  T
C949        H951   1.088       .  S
C949        C950   1.335   1_554  D
C950        H952   1.087       .  S
C953        C954   1.208       .  T
C955        H957   1.087   1_545  S
C955        C956   1.343       .  D
C956        H958   1.087       .  S
C959        H961   1.087       .  S
C959        C960   1.334       .  D
C960        H962   1.088   1_545  S
C963        H965   1.087       .  S
C963        C964   1.339       .  D
C964        H966   1.087       .  S
C967        H969   1.086       .  S
C967        C968   1.353       .  D
C968        H970   1.086       .  S
C971        H973   1.087       .  S
C971        C972   1.343       .  D
C972        H974   1.086       .  S
C975        H977   1.089       .  S
C975        C976   1.331       .  D
C976        H978   1.087       .  S
C979        H981   1.087       .  S
C979        C980   1.349       .  D
C980        H982   1.087       .  S
C983        H985   1.086       .  S
C983        C984   1.350       .  D
C984        H986   1.085       .  S
C987        H989   1.086       .  S
C987        C988   1.342       .  D
C988        H990   1.086       .  S
C991        H993   1.087       .  S
C991        C992   1.338       .  D
C992        H994   1.087       .  S
C995        H997   1.087       .  S
C995        C996   1.338       .  D
C996        H998   1.086       .  S
C999       H1001   1.088       .  S
C999       C1000   1.335       .  D
C1000      H1002   1.087       .  S
C1003      H1005   1.085       .  S
C1003      C1004   1.351       .  D
C1004      H1006   1.086       .  S
C1007      C1008   1.210       .  T
C1009      H1011   1.087       .  S
C1009      C1010   1.340   1_565  D
C1010      H1012   1.088       .  S
C1013      H1015   1.087       .  S
C1013      C1014   1.343   1_545  D
C1014      H1016   1.087       .  S
C1017      H1019   1.086       .  S
C1017      C1018   1.345       .  D
C1018      H1020   1.086       .  S
C1021      H1023   1.087       .  S
C1021      C1022   1.333       .  D
C1022      H1024   1.088       .  S
C1025      H1027   1.087       .  S
C1025      C1026   1.330       .  D
C1026      H1028   1.086       .  S
C1029      H1031   1.085       .  S
C1029      C1030   1.348       .  D
C1030      H1032   1.086       .  S
C1033      H1035   1.087       .  S
C1033      C1034   1.347       .  D
C1034      H1036   1.087       .  S
C1037      H1039   1.087       .  S
C1037      C1038   1.338       .  D
C1038      H1040   1.088       .  S
C1041      H1043   1.083       .  S
C1041      C1042   1.342       .  D
C1042      H1044   1.087       .  S
C1045      H1047   1.085       .  S
C1045      C1046   1.349       .  D
C1046      H1048   1.086       .  S
C1049      H1051   1.086       .  S
C1049      C1050   1.339       .  D
C1050      H1052   1.086       .  S
C1053      H1055   1.087       .  S
C1053      C1054   1.335       .  D
C1054      H1056   1.087       .  S
