geometry optimzed in LAMMPS
_audit_creation_date              2020-11-30 
_audit_creation_method            'lammps2cif' 
_symmetry_space_group_name_H-M    'P1' 
_symmetry_Int_Tables_number       1 
_symmetry_cell_setting            triclinic 
loop_ 
_symmetry_equiv_pos_as_xyz 
  x,y,z 
_cell_length_a                    49.32664432 
_cell_length_b                    49.00689539697468 
_cell_length_c                    49.302298796790105 
_cell_angle_alpha                 90.78692335933434 
_cell_angle_beta                  90.43385354512925 
_cell_angle_gamma                 90.48342516150949 
loop_ 
_atom_site_label 
_atom_site_type_symbol 
_atom_site_fract_x 
_atom_site_fract_y 
_atom_site_fract_z 
_atom_site_charge 
In1        In  0.48845783  0.39022273  0.89470762     1.36900
C2          C  0.48851174  0.41013434  0.84583707     0.78200
O3          O  0.45096101  0.36482571  0.88764902    -0.60300
O4          O  0.44823467  0.40756365  0.89895867    -0.51200
C5          C  0.48922843  0.38981267  0.94768794     0.70800
O6          O  0.48848791  0.36779400  0.93367405    -0.46000
C7          C  0.54080269  0.38578839  0.89312361     0.75600
O8          O  0.48830868  0.38452303  0.84990804    -0.57900
O9          O  0.52892162  0.40807171  0.89837338    -0.48000
O10         O  0.48841627  0.42516625  0.86714243    -0.54300
C11         C  0.43606660  0.38548382  0.89254682     0.85700
O12         O  0.48944933  0.41183944  0.93432167    -0.56200
O13         O  0.52562067  0.36494161  0.88865196    -0.59500
In14       In  0.32302046  0.56066295  0.89240310     1.36900
C15         C  0.34176319  0.56044380  0.84277319     0.78200
O16         O  0.29718637  0.59748540  0.88466712    -0.60300
O17         O  0.33914024  0.60214727  0.89689991    -0.51200
C18         C  0.32406945  0.56105918  0.94560836     0.70800
O19         O  0.30197597  0.55972823  0.93211995    -0.46000
C20         C  0.31821117  0.50785882  0.88960340     0.75600
O21         O  0.31649594  0.55946642  0.84768508    -0.57900
O22         O  0.34063178  0.52005590  0.89400399    -0.48000
O23         O  0.35714008  0.56112124  0.86371821    -0.54300
C24         C  0.31725196  0.61343668  0.88974506     0.85700
O25         O  0.34563830  0.56201244  0.93163127    -0.56200
O26         O  0.29735034  0.52291469  0.88709601    -0.59500
In27       In  0.49182432  0.72651391  0.88812360     1.36900
C28         C  0.49345866  0.70573357  0.83889014     0.78200
O29         O  0.53057763  0.75006269  0.88321292    -0.60300
O30         O  0.53100222  0.70770087  0.89519781    -0.51200
C31         C  0.49114078  0.72718059  0.94105178     0.70800
O32         O  0.49190903  0.74916492  0.92757338    -0.46000
C33         C  0.43945732  0.73220039  0.88520748     0.75600
O34         O  0.49450821  0.73142077  0.84306119    -0.57900
O35         O  0.45087560  0.70971079  0.89009465    -0.48000
O36         O  0.49160661  0.69134099  0.86017115    -0.54300
C37         C  0.54434608  0.72905185  0.88946541     0.85700
O38         O  0.49034115  0.70509525  0.92717851    -0.56200
O39         O  0.45512698  0.75275806  0.88185268    -0.59500
In40       In  0.66235456  0.55495813  0.89655218     1.36900
C41         C  0.64255911  0.55488725  0.84723823     0.78200
O42         O  0.68684946  0.51717189  0.89016532    -0.60300
O43         O  0.64446691  0.51470786  0.90123079    -0.51200
C44         C  0.66310433  0.55532090  0.94924351     0.70800
O45         O  0.68500841  0.55554010  0.93570430    -0.46000
C46         C  0.66568061  0.60776705  0.89643705     0.75600
O47         O  0.66803437  0.55490843  0.85163832    -0.57900
O48         O  0.64387593  0.59485380  0.90114719    -0.48000
O49         O  0.62782898  0.55453651  0.86836969    -0.54300
C50         C  0.66613410  0.50233124  0.89527012     0.85700
O51         O  0.64115305  0.55471765  0.93552259    -0.56200
O52         O  0.68670089  0.59339479  0.89189404    -0.59500
In53       In  0.48207911  0.91059995  0.37169187     1.36900
C54         C  0.48345901  0.86145780  0.39156052     0.78200
O55         O  0.51692769  0.90364014  0.34339896    -0.60300
O56         O  0.52401744  0.91463452  0.38554564    -0.51200
C57         C  0.48251932  0.96366718  0.36999578     0.70800
O58         O  0.48076924  0.94904675  0.34846903    -0.46000
C59         C  0.42914408  0.90930424  0.37190792     0.75600
O60         O  0.48147145  0.86563373  0.36620089    -0.57900
O61         O  0.44336884  0.91651184  0.39234601    -0.48000
O62         O  0.48499712  0.88284846  0.40655516    -0.54300
C63         C  0.53390519  0.90841053  0.36261875     0.85700
O64         O  0.48431899  0.95084456  0.39220165    -0.56200
O65         O  0.44214136  0.90303140  0.35042885    -0.59500
In66       In  0.31791803  0.90824323  0.54698702     1.36900
C67         C  0.33898326  0.85943102  0.54416278     0.78200
O68         O  0.29073537  0.90187389  0.51052530    -0.60300
O69         O  0.33296032  0.91303448  0.50605971    -0.51200
C70         C  0.31889757  0.96169452  0.54792977     0.70800
O71         O  0.29689222  0.94814236  0.54974988    -0.46000
C72         C  0.31411170  0.90409024  0.59918299     0.75600
O73         O  0.31346667  0.86288515  0.54473618    -0.57900
O74         O  0.33595813  0.91037708  0.58733232    -0.48000
O75         O  0.35319195  0.88126905  0.54535588    -0.54300
C76         C  0.31050374  0.90706504  0.49476140     0.85700
O77         O  0.34042258  0.94768298  0.54629406    -0.56200
O78         O  0.29318098  0.90050564  0.58411636    -0.59500
In79       In  0.49323515  0.90780664  0.70860816     1.36900
C80         C  0.49373259  0.85873598  0.68768268     0.78200
O81         O  0.45656071  0.89836999  0.73334991    -0.60300
O82         O  0.45247837  0.91043973  0.69139546    -0.51200
C83         C  0.49130304  0.96076461  0.71260506     0.70800
O84         O  0.49268514  0.94601800  0.73366077    -0.46000
C85         C  0.54600869  0.90825765  0.70820403     0.75600
O86         O  0.49463161  0.86268364  0.71327783    -0.57900
O87         O  0.53155906  0.91415509  0.68774912    -0.48000
O88         O  0.49253877  0.88027368  0.67349682    -0.54300
C89         C  0.44106028  0.90279395  0.71302061     0.85700
O90         O  0.49084986  0.94811957  0.68990585    -0.56200
O91         O  0.53326341  0.90231609  0.72984797    -0.59500
In92       In  0.65372143  0.91129938  0.53045820     1.36900
C93         C  0.63549908  0.86161318  0.53433686     0.78200
O94         O  0.68132150  0.90664787  0.56676607    -0.60300
O95         O  0.63917186  0.91710145  0.57178159    -0.51200
C96         C  0.65155811  0.96457500  0.52952446     0.70800
O97         O  0.67387866  0.95178852  0.52864898    -0.46000
C98         C  0.65674081  0.90579783  0.47791063     0.75600
O99         O  0.66067051  0.86681659  0.53181981    -0.57900
O100        O  0.63465151  0.90958914  0.49033438    -0.48000
O101        O  0.61985435  0.88220230  0.53418377    -0.54300
C102        C  0.66176468  0.91181946  0.58283191     0.85700
O103        O  0.63022350  0.94982857  0.53017659    -0.56200
O104        O  0.67816996  0.90506485  0.49256982    -0.59500
In105      In  0.83933728  0.55805632  0.70785037     1.36900
C106        C  0.79012253  0.56307858  0.68894889     0.78200
O107        O  0.83624802  0.59785049  0.73085452    -0.60300
O108        O  0.84737303  0.59685492  0.68848239    -0.51200
C109        C  0.89201685  0.55293955  0.70740746     0.70800
O110        O  0.87895660  0.55660199  0.72929107    -0.46000
C111        C  0.83245053  0.50627208  0.71652430     0.75600
O112        O  0.79526380  0.56251765  0.71428792    -0.57900
O113        O  0.83607048  0.51602672  0.69311719    -0.48000
O114        O  0.81053662  0.56015506  0.67346732    -0.54300
C115        C  0.84232328  0.61102028  0.70951797     0.85700
O116        O  0.87787957  0.55187608  0.68570657    -0.56200
O117        O  0.83209227  0.52337084  0.73628750    -0.59500
In118      In  0.83951069  0.72771249  0.53314457     1.36900
C119        C  0.79034696  0.70838993  0.53759217     0.78200
O120        O  0.83100481  0.75577608  0.49846284    -0.60300
O121        O  0.83744088  0.71269279  0.49128264    -0.51200
C122        C  0.89243633  0.72777426  0.52978691     0.70800
O123        O  0.87902848  0.74968928  0.53257339    -0.46000
C124        C  0.84253692  0.73103732  0.58593392     0.75600
O125        O  0.79538618  0.73386720  0.53691398    -0.57900
O126        O  0.84781315  0.70952884  0.57246781    -0.48000
O127        O  0.81086883  0.69287573  0.53512887    -0.54300
C128        C  0.83219923  0.73588954  0.48152186     0.85700
O129        O  0.87848246  0.70583652  0.52799950    -0.56200
O130        O  0.83567031  0.75179540  0.57217039    -0.59500
In131      In  0.84223725  0.39920570  0.54762961     1.36900
C132        C  0.79226341  0.41674799  0.54378741     0.78200
O133        O  0.83499390  0.37036125  0.58183308    -0.60300
O134        O  0.84073398  0.41358887  0.58967186    -0.51200
C135        C  0.89520085  0.40115310  0.55195097     0.70800
O136        O  0.88206722  0.37880979  0.54934887    -0.46000
C137        C  0.84518327  0.39533097  0.49482250     0.75600
O138        O  0.79781436  0.39147117  0.54409850    -0.57900
O139        O  0.84987748  0.41728337  0.50799246    -0.48000
O140        O  0.81264141  0.43287377  0.54607115    -0.54300
C141        C  0.83620480  0.39002337  0.59906013     0.85700
O142        O  0.88095997  0.42270484  0.55289264    -0.56200
O143        O  0.83917582  0.37448361  0.50889156    -0.59500
In144      In  0.83963875  0.56570639  0.37105038     1.36900
C145        C  0.79171438  0.56122939  0.39230162     0.78200
O146        O  0.83576801  0.52558729  0.34839321    -0.60300
O147        O  0.84850492  0.52705867  0.39045154    -0.51200
C148        C  0.89210665  0.56978997  0.36937461     0.70800
O149        O  0.87799157  0.56713657  0.34774280    -0.46000
C150        C  0.83291799  0.61775087  0.36361890     0.75600
O151        O  0.79529822  0.56117825  0.36676413    -0.57900
O152        O  0.84034610  0.60783180  0.38608124    -0.48000
O153        O  0.81305854  0.56430521  0.40680738    -0.54300
C154        C  0.84298922  0.51265224  0.36955658     0.85700
O155        O  0.87903729  0.57096235  0.39149767    -0.56200
O156        O  0.82913953  0.60074882  0.34406410    -0.59500
In157      In  0.48785635  0.39244198  0.19262284     1.36900
C158        C  0.48732530  0.41229710  0.24229583     0.78200
O159        O  0.52372383  0.36561192  0.19989308    -0.60300
O160        O  0.52915085  0.40816826  0.18980197    -0.51200
C161        C  0.48922758  0.39089693  0.13951446     0.70800
O162        O  0.48786710  0.36929819  0.15351712    -0.46000
C163        C  0.43512405  0.38864610  0.19203523     0.75600
O164        O  0.48754997  0.38675686  0.23727350    -0.57900
O165        O  0.44790401  0.41059320  0.18721390    -0.48000
O166        O  0.48797327  0.42751479  0.22151153    -0.54300
C167        C  0.53991537  0.38552816  0.19557861     0.85700
O168        O  0.48994650  0.41329017  0.15292507    -0.56200
O169        O  0.44954952  0.36780254  0.19717841    -0.59500
In170      In  0.32233257  0.56133058  0.19081620     1.36900
C171        C  0.34127051  0.55980645  0.24065283     0.78200
O172        O  0.29616019  0.52401870  0.19574735    -0.60300
O173        O  0.33834833  0.52031074  0.18480827    -0.51200
C174        C  0.32254180  0.56264577  0.13768588     0.70800
O175        O  0.30065915  0.56173550  0.15118598    -0.46000
C176        C  0.31616156  0.61383752  0.19319839     0.75600
O177        O  0.31601355  0.56064171  0.23538389    -0.57900
O178        O  0.33879059  0.60259668  0.18872343    -0.48000
O179        O  0.35672935  0.56059520  0.22004312    -0.54300
C180        C  0.31610432  0.50851519  0.19024996     0.85700
O181        O  0.34438988  0.56269608  0.15162031    -0.56200
O182        O  0.29592916  0.59791784  0.19680042    -0.59500
In183      In  0.49031060  0.72432275  0.18555173     1.36900
C184        C  0.49008132  0.70621197  0.23527035     0.78200
O185        O  0.45368454  0.74985459  0.19183992    -0.60300
O186        O  0.44970313  0.70687828  0.18137678    -0.51200
C187        C  0.49017495  0.72587414  0.13261330     0.70800
O188        O  0.48983804  0.74747342  0.14723638    -0.46000
C189        C  0.54263540  0.73025576  0.18704759     0.75600
O190        O  0.48956792  0.73157231  0.23011059    -0.57900
O191        O  0.53099766  0.70762095  0.18158695    -0.48000
O192        O  0.49038370  0.69025990  0.21458388    -0.54300
C193        C  0.43821387  0.72929911  0.18713364     0.85700
O194        O  0.49030044  0.70341696  0.14532299    -0.56200
O195        O  0.52724096  0.75054992  0.19170325    -0.59500
In196      In  0.65520290  0.55736080  0.19296295     1.36900
C197        C  0.63510550  0.55958427  0.24181962     0.78200
O198        O  0.68009831  0.59548294  0.19989869    -0.60300
O199        O  0.63858114  0.59793047  0.18579862    -0.51200
C200        C  0.65875527  0.55619000  0.14040002     0.70800
O201        O  0.67978308  0.55578289  0.15556251    -0.46000
C202        C  0.65940744  0.50460231  0.19438726     0.75600
O203        O  0.66050880  0.55961164  0.23754085    -0.57900
O204        O  0.63753902  0.51660741  0.18827756    -0.48000
O205        O  0.62007656  0.55762732  0.22068329    -0.54300
C206        C  0.66017277  0.61039606  0.19298060     0.85700
O207        O  0.63600870  0.55681294  0.15244111    -0.56200
O208        O  0.67983532  0.51987769  0.20006033    -0.59500
In209      In  0.48964308  0.20565138  0.71487592     1.36900
C210        C  0.49021537  0.25383930  0.69361586     0.78200
O211        O  0.52702574  0.21347052  0.73991785    -0.60300
O212        O  0.52989620  0.20166419  0.69754951    -0.51200
C213        C  0.48801495  0.15279569  0.71713581     0.70800
O214        O  0.48905089  0.16754418  0.73856393    -0.46000
C215        C  0.43746938  0.21009686  0.71932876     0.75600
O216        O  0.49054015  0.25046778  0.71918737    -0.57900
O217        O  0.44900441  0.20281372  0.69754281    -0.48000
O218        O  0.49008804  0.23203310  0.67917684    -0.54300
C219        C  0.54196246  0.20871140  0.71938230     0.85700
O220        O  0.48794201  0.16536191  0.69474149    -0.56200
O221        O  0.45284807  0.21430487  0.73994368    -0.59500
In222      In  0.65238984  0.21037803  0.54238618     1.36900
C223        C  0.63509970  0.26046233  0.54283817     0.78200
O224        O  0.67782032  0.21744261  0.50535770    -0.60300
O225        O  0.63514643  0.20757161  0.50150663    -0.51200
C226        C  0.65182248  0.15719203  0.54053560     0.70800
O227        O  0.67381018  0.17098329  0.54135909    -0.46000
C228        C  0.65683866  0.21238568  0.59499911     0.75600
O229        O  0.66022032  0.25494673  0.54440021    -0.57900
O230        O  0.63453743  0.20765174  0.58274601    -0.48000
O231        O  0.61917686  0.23979104  0.54179517    -0.54300
C232        C  0.65724822  0.21341204  0.48987821     0.85700
O233        O  0.63001115  0.17087961  0.54096730    -0.56200
O234        O  0.67769814  0.21538520  0.58011418    -0.59500
In235      In  0.32082136  0.20778446  0.54432562     1.36900
C236        C  0.34026074  0.25769402  0.54440845     0.78200
O237        O  0.29691914  0.21511091  0.58219476    -0.60300
O238        O  0.33915690  0.20365968  0.58449463    -0.51200
C239        C  0.31925413  0.15446477  0.54390663     0.70800
O240        O  0.29773443  0.16866406  0.54420335    -0.46000
C241        C  0.31629409  0.20990787  0.49187756     0.75600
O242        O  0.31485516  0.25295582  0.54500986    -0.57900
O243        O  0.33821006  0.20399744  0.50396921    -0.48000
O244        O  0.35521553  0.23654264  0.54393896    -0.54300
C245        C  0.31773866  0.21040244  0.59690540     0.85700
O246        O  0.34149674  0.16780571  0.54372305    -0.56200
O247        O  0.29565308  0.21401768  0.50685584    -0.59500
In248      In  0.48527128  0.20970600  0.37234234     1.36900
C249        C  0.48626960  0.25880921  0.39399947     0.78200
O250        O  0.44781405  0.21780060  0.34743080    -0.60300
O251        O  0.44498789  0.20561581  0.38933429    -0.51200
C252        C  0.48332674  0.15638627  0.37141961     0.70800
O253        O  0.48367051  0.17008319  0.34964138    -0.46000
C254        C  0.53769506  0.21063338  0.36806007     0.75600
O255        O  0.48621397  0.25495748  0.36842388    -0.57900
O256        O  0.52552935  0.20439079  0.38968616    -0.48000
O257        O  0.48629811  0.23714277  0.40804833    -0.54300
C258        C  0.43286025  0.21256301  0.36779795     0.85700
O259        O  0.48408672  0.17022816  0.39342979    -0.56200
O260        O  0.52275515  0.21598568  0.34756230    -0.59500
In261      In  0.13516845  0.56443903  0.37440262     1.36900
C262        C  0.18483160  0.56193342  0.39257600     0.78200
O263        O  0.14130727  0.60183468  0.34957137    -0.60300
O264        O  0.13407376  0.60509259  0.39280415    -0.51200
C265        C  0.08284645  0.56686001  0.37109754     0.70800
O266        O  0.09740218  0.56478321  0.34992906    -0.46000
C267        C  0.13237325  0.51156771  0.37269081     0.75600
O268        O  0.17947939  0.56238892  0.36724828    -0.57900
O269        O  0.12704076  0.52553262  0.39383821    -0.48000
O270        O  0.16439733  0.56326551  0.40822970    -0.54300
C271        C  0.13850270  0.61707004  0.37057538     0.85700
O272        O  0.09537626  0.56766952  0.39377046    -0.56200
O273        O  0.13913004  0.52487798  0.35166147    -0.59500
In274      In  0.13958352  0.39555969  0.54538371     1.36900
C275        C  0.18898091  0.41436298  0.53998510     0.78200
O276        O  0.14214693  0.37066069  0.50705344    -0.60300
O277        O  0.13046454  0.41308186  0.50605481    -0.51200
C278        C  0.08680141  0.39796450  0.55004309     0.70800
O279        O  0.09933485  0.37558559  0.54696765    -0.46000
C280        C  0.14675589  0.38475782  0.59631696     0.75600
O281        O  0.18374491  0.38894321  0.54039845    -0.57900
O282        O  0.14307909  0.40866499  0.58759979    -0.48000
O283        O  0.16862579  0.42998102  0.54305743    -0.54300
C284        C  0.13525912  0.39119735  0.49302810     0.85700
O285        O  0.10157453  0.41938273  0.55136506    -0.56200
O286        O  0.14684623  0.36554555  0.57859556    -0.59500
In287      In  0.13617818  0.55098583  0.71020328     1.36900
C288        C  0.18493984  0.55625394  0.69013531     0.78200
O289        O  0.14583659  0.51561325  0.73720916    -0.60300
O290        O  0.13657370  0.50916512  0.69463685    -0.51200
C291        C  0.08330687  0.54691031  0.71050089     0.70800
O292        O  0.09717969  0.54871696  0.73234241    -0.46000
C293        C  0.13345494  0.60397936  0.71378016     0.75600
O294        O  0.18070860  0.55528447  0.71553310    -0.57900
O295        O  0.12823216  0.59056180  0.69217646    -0.48000
O296        O  0.16385363  0.55380476  0.67513064    -0.54300
C297        C  0.14310459  0.49893782  0.71722572     0.85700
O298        O  0.09677369  0.54643405  0.68858877    -0.56200
O299        O  0.13971794  0.59001981  0.73457738    -0.59500
In300      In  0.13648801  0.72688144  0.54176427     1.36900
C301        C  0.18496587  0.70637576  0.54377361     0.78200
O302        O  0.14266182  0.74906113  0.58156393    -0.60300
O303        O  0.12801357  0.70736041  0.58034451    -0.51200
C304        C  0.08381784  0.72874818  0.53774077     0.70800
O305        O  0.09815648  0.75026464  0.54125426    -0.46000
C306        C  0.14138480  0.73542024  0.49039336     0.75600
O307        O  0.18106208  0.73200467  0.54406085    -0.57900
O308        O  0.13558551  0.71223591  0.50002913    -0.48000
O309        O  0.16369745  0.69147890  0.54159842    -0.54300
C310        C  0.13510666  0.72799598  0.59455838     0.85700
O311        O  0.09670317  0.70639291  0.53632424    -0.56200
O312        O  0.14476243  0.75506155  0.50741362    -0.59500
C313        C  0.62315981  0.56296623  0.26998736    -0.01900
C314        C  0.49140027  0.69532155  0.26394051    -0.01900
C315        C  0.21282212  0.69392729  0.54689515    -0.01900
C316        C  0.21302909  0.56026228  0.67820639    -0.01900
C317        C  0.62415166  0.28946247  0.54220283    -0.01900
C318        C  0.48929218  0.28186143  0.68095356    -0.01900
C319        C  0.35261370  0.55729726  0.26935970    -0.01900
C320        C  0.48534579  0.42417197  0.27088756    -0.01900
C321        C  0.48606010  0.28710932  0.40755660    -0.01900
C322        C  0.35271207  0.28635160  0.54457729    -0.01900
C323        C  0.21341249  0.55963286  0.40396859    -0.01900
C324        C  0.21735737  0.42580247  0.53584729    -0.01900
C325        C  0.48947648  0.42231149  0.81770843    -0.01900
C326        C  0.35337697  0.56080613  0.81412871    -0.01900
C327        C  0.35216362  0.83151213  0.54165964    -0.01900
C328        C  0.48302549  0.83310242  0.40358279    -0.01900
C329        C  0.76401532  0.55744728  0.40492456    -0.01900
C330        C  0.76365129  0.42748209  0.53986363    -0.01900
C331        C  0.76166726  0.56667113  0.67756841    -0.01900
C332        C  0.62971443  0.55511323  0.81898618    -0.01900
C333        C  0.49460067  0.83056408  0.67430039    -0.01900
C334        C  0.49414708  0.69223775  0.81079993    -0.01900
C335        C  0.76200145  0.69690706  0.54184007    -0.01900
C336        C  0.62439335  0.83303088  0.53780411    -0.01900
C337        C  0.70561651  0.74225406  0.52796237     0.20900
C338        C  0.68162338  0.75100080  0.51542102    -0.38900
C339        C  0.67091123  0.77550135  0.52553174     0.19900
C340        C  0.68313100  0.79007648  0.54655506     0.22600
C341        C  0.70702822  0.78127712  0.55921060    -0.39400
C342        C  0.71775391  0.75681166  0.54905482     0.21400
N343        N  0.71953702  0.71944614  0.52234893    -0.32700
C344        C  0.74088342  0.71939422  0.53997084    -0.10300
C345        C  0.74021167  0.74242254  0.55705303    -0.29100
N346        N  0.66860464  0.81225449  0.55287725    -0.45700
C347        C  0.64688210  0.81203104  0.53575913    -0.05000
C348        C  0.64766985  0.78918867  0.51841718    -0.22300
H349        H  0.67190661  0.73947236  0.49912746     0.19500
H350        H  0.71643664  0.79252217  0.57587734     0.18300
H351        H  0.75421838  0.74769844  0.57333940     0.14500
H352        H  0.63289319  0.78280157  0.50325844     0.14400
H353        H  0.71430251  0.70469885  0.50771070     0.32600
H354        H  0.67285308  0.82645304  0.56836782     0.35300
C355        C  0.55834968  0.83794692  0.63823077     0.20900
C356        C  0.57976648  0.85259955  0.62665625    -0.38900
C357        C  0.59294771  0.83946598  0.60512074     0.19900
C358        C  0.58585975  0.81341010  0.59634560     0.22600
C359        C  0.56437650  0.79886569  0.60785295    -0.39400
C360        C  0.55066867  0.81233576  0.62876705     0.21400
N361        N  0.54047778  0.84735183  0.65637807    -0.32700
C362        C  0.52074879  0.82789400  0.65806081    -0.10300
C363        C  0.52663944  0.80571217  0.64105089    -0.29100
N364        N  0.59834020  0.80717020  0.57305847    -0.45700
C365        C  0.61227564  0.82990069  0.56593918    -0.05000
C366        C  0.61015398  0.85012879  0.58612521    -0.22300
H367        H  0.58416029  0.87359276  0.63232622     0.19500
H368        H  0.55741503  0.77944429  0.59959292     0.18300
H369        H  0.51421674  0.78772767  0.63729730     0.14500
H370        H  0.61758078  0.87087086  0.58569824     0.14400
H371        H  0.54131426  0.86646939  0.66584340     0.32600
H372        H  0.59510935  0.78965531  0.56110614     0.35300
C373        C  0.48162627  0.74732859  0.76343279     0.20900
C374        C  0.46725861  0.76902279  0.75171796    -0.38900
C375        C  0.48011117  0.78211612  0.72997032     0.19900
C376        C  0.50521963  0.77407103  0.72076423     0.22600
C377        C  0.51950457  0.75248419  0.73241184    -0.39400
C378        C  0.50674939  0.73951077  0.75407186     0.21400
N379        N  0.47419831  0.73184199  0.78453269    -0.32700
C380        C  0.49471822  0.71394293  0.78873279    -0.10300
C381        C  0.51546096  0.71839221  0.76998891    -0.29100
N382        N  0.51344006  0.78980194  0.70032219    -0.45700
C383        C  0.49336558  0.80813729  0.69581694    -0.05000
C384        C  0.47228583  0.80402950  0.71433700    -0.22300
H385        H  0.44766641  0.77536548  0.75912054     0.19500
H386        H  0.53926168  0.74636938  0.72523924     0.18300
H387        H  0.53461179  0.70797222  0.76823554     0.14500
H388        H  0.45380860  0.81565092  0.71613780     0.14400
H389        H  0.45621891  0.73331134  0.79549871     0.32600
H390        H  0.53211666  0.78816172  0.69067768     0.35300
C391        C  0.55510166  0.65172684  0.82237011     0.20900
C392        C  0.57529233  0.63975253  0.83828039    -0.38900
C393        C  0.58931448  0.61830854  0.82587285     0.19900
C394        C  0.58445813  0.61010359  0.79939034     0.22600
C395        C  0.56450722  0.62245208  0.78329087    -0.39400
C396        C  0.54966647  0.64323869  0.79608909     0.21400
N397        N  0.53728891  0.67055116  0.83045656    -0.32700
C398        C  0.51937894  0.67379541  0.80956967    -0.10300
C399        C  0.52714430  0.65728549  0.78749001    -0.29100
N400        N  0.59920192  0.58798981  0.79312126    -0.45700
C401        C  0.61262714  0.58101279  0.81618688    -0.05000
C402        C  0.60747434  0.60039600  0.83673429    -0.22300
H403        H  0.57876583  0.64567603  0.85927070     0.19500
H404        H  0.55981098  0.61531862  0.76290789     0.18300
H405        H  0.51780174  0.65559727  0.76767788     0.14500
H406        H  0.61486236  0.60108237  0.85737236     0.14400
H407        H  0.53759463  0.67997570  0.84951638     0.32600
H408        H  0.59989953  0.57842640  0.77414018     0.35300
C409        C  0.77014858  0.63074838  0.64233013     0.20900
C410        C  0.78540562  0.65000153  0.62815998    -0.38900
C411        C  0.77144465  0.66420129  0.60807498     0.19900
C412        C  0.74425961  0.65975928  0.60244840     0.22600
C413        C  0.72879992  0.64074009  0.61696167    -0.39400
C414        C  0.74285468  0.62637523  0.63708698     0.21400
N415        N  0.77991011  0.61171831  0.65899115    -0.32700
C416        C  0.75891757  0.59446690  0.66409476    -0.10300
C417        C  0.73519398  0.60365892  0.65146343    -0.29100
N418        N  0.73703248  0.67252344  0.57954324    -0.45700
C419        C  0.75997797  0.68451207  0.57005800    -0.05000
C420        C  0.78158761  0.68038607  0.58803924    -0.22300
H421        H  0.80710124  0.65216986  0.63104319     0.19500
H422        H  0.70796472  0.63596607  0.61157471     0.18300
H423        H  0.71576964  0.59324023  0.65048191     0.14500
H424        H  0.80260735  0.68598805  0.58565220     0.14400
H425        H  0.80021782  0.60964598  0.66451589     0.32600
H426        H  0.71825540  0.67116613  0.56964601     0.35300
C427        C  0.70802871  0.55114302  0.72562148     0.20900
C428        C  0.68629018  0.53626329  0.73626161    -0.38900
C429        C  0.67569086  0.54627325  0.76066721     0.19900
C430        C  0.68573766  0.56950923  0.77349551     0.22600
C431        C  0.70783015  0.58430778  0.76300960    -0.39400
C432        C  0.71861034  0.57411008  0.73854290     0.21400
N433        N  0.72115860  0.54583527  0.70243510    -0.32700
C434        C  0.74089199  0.56518773  0.70048293    -0.10300
C435        C  0.73966981  0.58339960  0.72268275    -0.29100
N436        N  0.67109581  0.57534381  0.79575128    -0.45700
C437        C  0.65165667  0.55555177  0.79725881    -0.05000
C438        C  0.65422207  0.53693329  0.77565003    -0.22300
H439        H  0.67802686  0.51829986  0.72608811     0.19500
H440        H  0.71580348  0.60252499  0.77296136     0.18300
H441        H  0.75260282  0.60098463  0.72664298     0.14500
H442        H  0.64179711  0.51918627  0.77095601     0.14400
H443        H  0.71647542  0.52994852  0.68886576     0.32600
H444        H  0.67384648  0.59202105  0.80894094     0.35300
C445        C  0.75823568  0.46942928  0.60100926     0.20900
C446        C  0.75913083  0.47521270  0.62902840    -0.38900
C447        C  0.75742063  0.50295695  0.63640255     0.19900
C448        C  0.75496161  0.52318419  0.61731663     0.22600
C449        C  0.75417629  0.51743035  0.58942551    -0.39400
C450        C  0.75587093  0.48983092  0.58209643     0.21400
N451        N  0.76069767  0.44498228  0.58857702    -0.32700
C452        C  0.75977063  0.44977764  0.56148429    -0.10300
C453        C  0.75693154  0.47775886  0.55685680    -0.29100
N454        N  0.75509713  0.54794129  0.62916699    -0.45700
C455        C  0.75750837  0.54383948  0.65631365    -0.05000
C456        C  0.75925737  0.51582218  0.66143464    -0.22300
H457        H  0.76155957  0.45939572  0.64390518     0.19500
H458        H  0.75288983  0.53335988  0.57448393     0.18300
H459        H  0.75674198  0.48827439  0.53771859     0.14500
H460        H  0.76234674  0.50633049  0.68086659     0.14400
H461        H  0.76341236  0.42617624  0.59788262     0.32600
H462        H  0.75501123  0.56635831  0.61880747     0.35300
C463        C  0.74642014  0.49792513  0.44404228     0.20900
C464        C  0.73087086  0.48396110  0.46320087    -0.38900
C465        C  0.74470875  0.46431976  0.47826188     0.19900
C466        C  0.77185703  0.45880070  0.47424454     0.22600
C467        C  0.78725449  0.47244166  0.45483934    -0.39400
C468        C  0.77353407  0.49228894  0.44009374     0.21400
N469        N  0.73931284  0.52043341  0.43057546    -0.32700
C470        C  0.76221654  0.52972944  0.41854541    -0.10300
C471        C  0.78379221  0.51204508  0.42351514    -0.29100
N472        N  0.78154150  0.44307781  0.49403139    -0.45700
C473        C  0.76073242  0.43921634  0.51149592    -0.05000
C474        C  0.73709841  0.45130195  0.50159945    -0.22300
H475        H  0.71018739  0.48959104  0.46764671     0.19500
H476        H  0.80890005  0.46949464  0.45302540     0.18300
H477        H  0.80479556  0.51441091  0.41798034     0.14500
H478        H  0.71788053  0.45307339  0.51190308     0.14400
H479        H  0.72059535  0.53021836  0.43135355     0.32600
H480        H  0.80177894  0.43764055  0.49641415     0.35300
C481        C  0.75616068  0.60124898  0.46452111     0.20900
C482        C  0.75335663  0.60722118  0.49215973    -0.38900
C483        C  0.75431013  0.63489153  0.49930526     0.19900
C484        C  0.75787188  0.65521112  0.48048881     0.22600
C485        C  0.76074133  0.64921781  0.45268909    -0.39400
C486        C  0.75972023  0.62136730  0.44547701     0.21400
N487        N  0.75682269  0.57639035  0.45295162    -0.32700
C488        C  0.76058696  0.58034164  0.42600860    -0.10300
C489        C  0.76271596  0.60831130  0.42073277    -0.29100
N490        N  0.75974132  0.67974576  0.49295675    -0.45700
C491        C  0.75749700  0.67497586  0.51996860    -0.05000
C492        C  0.75396632  0.64704279  0.52447069    -0.22300
H493        H  0.75114508  0.59140229  0.50711211     0.19500
H494        H  0.76403734  0.66495489  0.43792993     0.18300
H495        H  0.76623862  0.61762807  0.40134956     0.14500
H496        H  0.75288886  0.63653677  0.54357692     0.14400
H497        H  0.75551075  0.55802623  0.46332914     0.32600
H498        H  0.76344921  0.69849869  0.48383813     0.35300
C499        C  0.58205687  0.82782440  0.47700405     0.20900
C500        C  0.57578978  0.82744023  0.44904337    -0.38900
C501        C  0.54798940  0.82881138  0.44237717     0.19900
C502        C  0.52839356  0.83072028  0.46212029     0.22600
C503        C  0.53457108  0.83093966  0.48979407    -0.39400
C504        C  0.56201993  0.82917016  0.49636531     0.21400
N505        N  0.60671985  0.82809710  0.48897810    -0.32700
C506        C  0.60221839  0.82903384  0.51619544    -0.10300
C507        C  0.57436151  0.82995187  0.52126527    -0.29100
N508        N  0.50373794  0.83280243  0.45109280    -0.45700
C509        C  0.50686183  0.83129570  0.42372486    -0.05000
C510        C  0.53458852  0.82941261  0.41759308    -0.22300
H511        H  0.59132969  0.82635523  0.43373757     0.19500
H512        H  0.51907064  0.83263396  0.50514438     0.18300
H513        H  0.56423884  0.83247035  0.54051493     0.14500
H514        H  0.54393486  0.82875331  0.39789252     0.14400
H515        H  0.62546607  0.82837466  0.47929498     0.32600
H516        H  0.48607796  0.83612799  0.46213485     0.35300
C517        C  0.39675624  0.81511969  0.48582794     0.20900
C518        C  0.41740325  0.80069808  0.47281974    -0.38900
C519        C  0.42864634  0.81337857  0.45021939     0.19900
C520        C  0.42015739  0.83857560  0.44134219     0.22600
C521        C  0.39912306  0.85277934  0.45407497    -0.39400
C522        C  0.38775409  0.83998634  0.47659562     0.21400
N523        N  0.38481948  0.80879179  0.50927782    -0.32700
C524        C  0.36789662  0.82969930  0.51517279    -0.10300
C525        C  0.36904352  0.84940244  0.49485954    -0.29100
N526        N  0.43682890  0.84809250  0.42221152    -0.45700
C527        C  0.45653164  0.82906969  0.41917660    -0.05000
C528        C  0.45131665  0.80667239  0.43577118    -0.22300
H529        H  0.42520040  0.78175838  0.48063869     0.19500
H530        H  0.39318946  0.87300632  0.44793446     0.18300
H531        H  0.35867443  0.86866854  0.49399946     0.14500
H532        H  0.46421427  0.78921184  0.43890657     0.14400
H533        H  0.38872164  0.79177594  0.52118515     0.32600
H534        H  0.43565924  0.86725743  0.41340508     0.35300
C535        C  0.40932660  0.83921224  0.58733208     0.20900
C536        C  0.43367394  0.85111109  0.59605834    -0.38900
C537        C  0.44548577  0.83954553  0.61886035     0.19900
C538        C  0.43414547  0.81774561  0.63228241     0.22600
C539        C  0.40956469  0.80554693  0.62331919    -0.39400
C540        C  0.39755209  0.81725053  0.60018659     0.21400
N541        N  0.39466449  0.84663543  0.56587355    -0.32700
C542        C  0.37294798  0.82954873  0.56452787    -0.10300
C543        C  0.37410543  0.81066130  0.58570850    -0.29100
N544        N  0.44980778  0.81095809  0.65371165    -0.45700
C545        C  0.47109862  0.82890527  0.65385221    -0.05000
C546        C  0.46899633  0.84659000  0.63196071    -0.22300
H547        H  0.44280456  0.86821963  0.58576414     0.19500
H548        H  0.40052795  0.78834128  0.63351433     0.18300
H549        H  0.36004466  0.79420100  0.58981818     0.14500
H550        H  0.48300044  0.86258783  0.62623887     0.14400
H551        H  0.39968173  0.86212350  0.55240983     0.32600
H552        H  0.44608150  0.79510123  0.66711847     0.35300
C553        C  0.40072230  0.61322645  0.79355922     0.20900
C554        C  0.42341513  0.62297549  0.77940312    -0.38900
C555        C  0.43768701  0.64470195  0.79197660     0.19900
C556        C  0.42964711  0.65587679  0.81641956     0.22600
C557        C  0.40686904  0.64649188  0.83031497    -0.39400
C558        C  0.39289153  0.62467540  0.81802988     0.21400
N559        N  0.38616583  0.59046725  0.78812380    -0.32700
C560        C  0.36954016  0.58694899  0.80968849    -0.10300
C561        C  0.37275475  0.60851031  0.82833426    -0.29100
N562        N  0.44760556  0.67450455  0.82538889    -0.45700
C563        C  0.46812434  0.67504549  0.80708527    -0.05000
C564        C  0.46189004  0.65722581  0.78532360    -0.22300
H565        H  0.43034725  0.61333740  0.76086016     0.19500
H566        H  0.40145516  0.65447232  0.85011346     0.18300
H567        H  0.36347689  0.61093577  0.84798006     0.14500
H568        H  0.47351480  0.65320413  0.76730555     0.14400
H569        H  0.38895329  0.57686977  0.77190067     0.32600
H570        H  0.44558072  0.68575195  0.84331891     0.35300
C571        C  0.40981168  0.51473473  0.82270159     0.20900
C572        C  0.43500330  0.50701422  0.83315734    -0.38900
C573        C  0.44411937  0.48138123  0.82469571     0.19900
C574        C  0.42975681  0.46499956  0.80660541     0.22600
C575        C  0.40392908  0.47231553  0.79694049    -0.39400
C576        C  0.39442578  0.49781210  0.80598786     0.21400
N577        N  0.39726241  0.53843922  0.82705215    -0.32700
C578        C  0.37339470  0.53709529  0.81313652    -0.10300
C579        C  0.37051090  0.51126943  0.80063994    -0.29100
N580        N  0.44381563  0.44236123  0.80047342    -0.45700
C581        C  0.46682274  0.44359298  0.81596258    -0.05000
C582        C  0.46749045  0.46798221  0.83112159    -0.22300
H583        H  0.44674821  0.52012202  0.84672414     0.19500
H584        H  0.39226373  0.45928631  0.78323600     0.18300
H585        H  0.35319275  0.50267073  0.78994822     0.14500
H586        H  0.48335108  0.47513178  0.84482364     0.14400
H587        H  0.40467468  0.55478153  0.83883571     0.32600
H588        H  0.43778699  0.42791973  0.78598256     0.35300
C589        C  0.55453204  0.45748641  0.82305515     0.20900
C590        C  0.57699173  0.46853255  0.83702965    -0.38900
C591        C  0.58947406  0.49097815  0.82485646     0.19900
C592        C  0.58068076  0.50135464  0.80049173     0.22600
C593        C  0.55856947  0.48992426  0.78617629    -0.39400
C594        C  0.54572563  0.46775474  0.79855102     0.21400
N595        N  0.53687179  0.43895470  0.83235641    -0.32700
C596        C  0.51620722  0.43776706  0.81398169    -0.10300
C597        C  0.52156422  0.45490445  0.79217485    -0.29100
N598        N  0.59420076  0.52443367  0.79471382    -0.45700
C599        C  0.61146964  0.52947574  0.81589585    -0.05000
C600        C  0.60932009  0.50826076  0.83469614    -0.22300
H601        H  0.58308899  0.46142690  0.85683532     0.19500
H602        H  0.55082258  0.49878028  0.76771216     0.18300
H603        H  0.50829641  0.45911076  0.77518277     0.14500
H604        H  0.62000390  0.50596130  0.85369606     0.14400
H605        H  0.53832913  0.42904033  0.85086544     0.32600
H606        H  0.59118075  0.53595874  0.77741507     0.35300
C607        C  0.20758695  0.49383408  0.43665296     0.20900
C608        C  0.19300845  0.47348975  0.45004828    -0.38900
C609        C  0.20731009  0.45939989  0.47000076     0.19900
C610        C  0.23425344  0.46480824  0.47604145     0.22600
C611        C  0.24904142  0.48490497  0.46225420    -0.39400
C612        C  0.23458695  0.49931142  0.44244552     0.21400
N613        N  0.19714368  0.51301628  0.42059442    -0.32700
C614        C  0.21731825  0.53154022  0.41657183    -0.10300
C615        C  0.24131620  0.52299420  0.42915512    -0.29100
N616        N  0.24175266  0.45186460  0.49877676    -0.45700
C617        C  0.21917974  0.43889597  0.50787039    -0.05000
C618        C  0.19759215  0.44247482  0.48967924    -0.22300
H619        H  0.17143885  0.47051790  0.44685377     0.19500
H620        H  0.26956919  0.49047590  0.46809399     0.18300
H621        H  0.26021051  0.53430334  0.43084573     0.14500
H622        H  0.17676840  0.43595957  0.49175011     0.14400
H623        H  0.17683043  0.51423216  0.41479140     0.32600
H624        H  0.26037757  0.45375280  0.50888414     0.35300
C625        C  0.29650802  0.33203188  0.53089716     0.20900
C626        C  0.27434789  0.34249249  0.51628843    -0.38900
C627        C  0.26247793  0.36615894  0.52732643     0.19900
C628        C  0.27230210  0.37863478  0.55075624     0.22600
C629        C  0.29427549  0.36807736  0.56539695    -0.39400
C630        C  0.30579834  0.34422731  0.55466459     0.21400
N631        N  0.31150971  0.31001630  0.52468111    -0.32700
C632        C  0.33048187  0.30795399  0.54471524    -0.10300
C633        C  0.32723230  0.32900070  0.56391912    -0.29100
N634        N  0.25809246  0.40117393  0.55677179    -0.45700
C635        C  0.23852296  0.40309892  0.53731925    -0.05000
C636        C  0.24075276  0.38144852  0.51856601    -0.22300
H637        H  0.26690311  0.33292180  0.49773885     0.19500
H638        H  0.30186531  0.37775741  0.58383371     0.18300
H639        H  0.33908223  0.33307881  0.58208221     0.14500
H640        H  0.22822832  0.37763325  0.50077174     0.14400
H641        H  0.30924608  0.29728133  0.50763195     0.32600
H642        H  0.26189722  0.41436563  0.57317164     0.35300
C643        C  0.43101826  0.30527690  0.45341029     0.20900
C644        C  0.41853880  0.32024428  0.47436397    -0.38900
C645        C  0.39792242  0.30636208  0.48828400     0.19900
C646        C  0.39012098  0.28004377  0.48138223     0.22600
C647        C  0.40195305  0.26551962  0.46004404    -0.39400
C648        C  0.42286379  0.27904895  0.44670394     0.21400
N649        N  0.45328091  0.31223163  0.43935811    -0.32700
C650        C  0.46014258  0.28971977  0.42446943    -0.10300
C651        C  0.44064152  0.26911279  0.42799794    -0.29100
N652        N  0.37251432  0.27015899  0.49930381    -0.45700
C653        C  0.36930039  0.28991461  0.51862982    -0.05000
C654        C  0.38407894  0.31333605  0.51152972    -0.22300
H655        H  0.42555596  0.34038585  0.48054538     0.19500
H656        H  0.39654360  0.24450230  0.45539724     0.18300
H657        H  0.43984487  0.24882038  0.41932148     0.14500
H658        H  0.38521291  0.33275004  0.52206659     0.14400
H659        H  0.46298638  0.33105250  0.44019725     0.32600
H660        H  0.36414093  0.25059040  0.49832537     0.35300
C661        C  0.47683358  0.36623424  0.31520521     0.20900
C662        C  0.46321467  0.34354668  0.32589974    -0.38900
C663        C  0.47462213  0.33267491  0.34953942     0.19900
C664        C  0.49805389  0.34325968  0.36126028     0.22600
C665        C  0.51153623  0.36607220  0.35067582    -0.39400
C666        C  0.49989944  0.37721732  0.32729470     0.21400
N667        N  0.46951862  0.38089531  0.29358000    -0.32700
C668        C  0.48782876  0.40166554  0.29184629    -0.10300
C669        C  0.50715464  0.39993888  0.31272627    -0.29100
N670        N  0.50513527  0.32896856  0.38323319    -0.45700
C671        C  0.48592930  0.30911866  0.38586985    -0.05000
C672        C  0.46637982  0.31110950  0.36523758    -0.22300
H673        H  0.44491068  0.33519622  0.31668287     0.19500
H674        H  0.52960141  0.37468387  0.36013079     0.18300
H675        H  0.52379348  0.41379349  0.31731929     0.14500
H676        H  0.44880774  0.29806901  0.36192023     0.14400
H677        H  0.45255258  0.37748931  0.28113344     0.32600
H678        H  0.52228610  0.33256049  0.39530763     0.35300
C679        C  0.25756475  0.55204116  0.34575039     0.20900
C680        C  0.26771263  0.53894868  0.32249939    -0.38900
C681        C  0.29207833  0.54958143  0.31239983     0.19900
C682        C  0.30532605  0.57164210  0.32440466     0.22600
C683        C  0.29518217  0.58471169  0.34776501    -0.39400
C684        C  0.27079231  0.57401047  0.35793799     0.21400
N685        N  0.23550058  0.54496872  0.35992578    -0.32700
C686        C  0.23443107  0.56244197  0.38150955    -0.10300
C687        C  0.25628208  0.58094044  0.38083233    -0.29100
N688        N  0.32833954  0.57753182  0.31104830    -0.45700
C689        C  0.32977679  0.55912236  0.29018952    -0.05000
C690        C  0.30750381  0.54122483  0.29071955    -0.22300
H691        H  0.25758893  0.52147810  0.31319078     0.19500
H692        H  0.30569781  0.60169731  0.35752395     0.18300
H693        H  0.26165500  0.59660907  0.39561650     0.14500
H694        H  0.30327925  0.52426140  0.27699361     0.14400
H695        H  0.22237419  0.52859150  0.35568752     0.32600
H696        H  0.34226985  0.59291576  0.31623192     0.35300
C697        C  0.39150056  0.49811116  0.28935435     0.20900
C698        C  0.41150587  0.48496844  0.30476879    -0.38900
C699        C  0.42548812  0.46392218  0.29133934     0.19900
C700        C  0.41961252  0.45639294  0.26478045     0.22600
C701        C  0.39937469  0.46912570  0.24964607    -0.39400
C702        C  0.38583756  0.49036252  0.26283810     0.21400
N703        N  0.37882095  0.52155976  0.29560630    -0.32700
C704        C  0.36586278  0.52938178  0.27257409    -0.10300
C705        C  0.36917326  0.50969885  0.25205179    -0.29100
N706        N  0.43854162  0.43963944  0.25491171    -0.43300
C707        C  0.45744097  0.43705493  0.27484226    -0.05000
C708        C  0.44917495  0.45091954  0.29840795    -0.22300
H709        H  0.41736208  0.49216573  0.32484096     0.19500
H710        H  0.39616835  0.46453379  0.22831091     0.18300
H711        H  0.36246273  0.51037289  0.23119704     0.14500
H712        H  0.46073280  0.45378781  0.31699619     0.14400
H713        H  0.38080724  0.53285160  0.31364765     0.32600
H714        H  0.43931579  0.43249566  0.23494106     0.35300
C715        C  0.50187170  0.36781074  0.76870884     0.20900
C716        C  0.51787931  0.35029155  0.75300408    -0.38900
C717        C  0.50360512  0.33184676  0.73622389     0.19900
C718        C  0.47567650  0.33152129  0.73457708     0.22600
C719        C  0.45964229  0.34753076  0.75192805    -0.39400
C720        C  0.47398586  0.36551858  0.76930788     0.21400
N721        N  0.51049977  0.38828990  0.78489968    -0.32700
C722        C  0.48802095  0.39926446  0.79641745    -0.10300
C723        C  0.46498229  0.38420851  0.78826683    -0.29100
N724        N  0.46724183  0.31440600  0.71472840    -0.45700
C725        C  0.49000844  0.30352406  0.70360252    -0.05000
C726        C  0.51291448  0.31265713  0.71808516    -0.22300
H727        H  0.53979981  0.35151239  0.75320632     0.19500
H728        H  0.43771127  0.34666522  0.75134625     0.18300
H729        H  0.44443648  0.38598323  0.79548785     0.14500
H730        H  0.53364267  0.30596223  0.71631468     0.14400
H731        H  0.53072766  0.39396455  0.78818978     0.32600
H732        H  0.44708374  0.31026977  0.70934464     0.35300
C733        C  0.43563891  0.30123959  0.63473651     0.20900
C734        C  0.42463314  0.31598158  0.61310762    -0.38900
C735        C  0.40286359  0.30330778  0.59925834     0.19900
C736        C  0.39279262  0.27817249  0.60661898     0.22600
C737        C  0.40354798  0.26357510  0.62833802    -0.39400
C738        C  0.42538915  0.27605992  0.64197828     0.21400
N739        N  0.45835003  0.30712467  0.64890588    -0.32700
C740        C  0.46303258  0.28523730  0.66482814    -0.10300
C741        C  0.44234403  0.26576260  0.66138969    -0.29100
N742        N  0.37352458  0.26959869  0.58920761    -0.45700
C743        C  0.37130319  0.28903556  0.56983306    -0.05000
C744        C  0.38909681  0.31079129  0.57613509    -0.22300
H745        H  0.43325222  0.33519666  0.60668393     0.19500
H746        H  0.39637549  0.24332451  0.63330586     0.18300
H747        H  0.44077424  0.24581136  0.67018765     0.14500
H748        H  0.39210294  0.32956209  0.56541002     0.14400
H749        H  0.47101128  0.32410114  0.64652865     0.32600
H750        H  0.36299544  0.25118814  0.59075917     0.35300
C751        C  0.66948167  0.34863824  0.55050014     0.20900
C752        C  0.67806993  0.37442125  0.56019161    -0.38900
C753        C  0.70377458  0.38315121  0.55158946     0.19900
C754        C  0.71931859  0.36783656  0.53395178     0.22600
C755        C  0.71068415  0.34209329  0.52418665    -0.39400
C756        C  0.68532984  0.33301549  0.53346746     0.21400
N757        N  0.64592473  0.33576818  0.55571699    -0.32700
C758        C  0.64715034  0.31088881  0.54318853    -0.10300
C759        C  0.67115457  0.30917637  0.52811822    -0.29100
N760        N  0.74241308  0.38118006  0.52795375    -0.45700
C761        C  0.74212788  0.40498070  0.54243829    -0.05000
C762        C  0.71804017  0.40687149  0.55729306    -0.22300
H763        H  0.66573699  0.38668766  0.57362543     0.19500
H764        H  0.72285910  0.32997238  0.51047769     0.18300
H765        H  0.67734193  0.29279025  0.51465608     0.14500
H766        H  0.71129534  0.42375433  0.56982702     0.14400
H767        H  0.62961655  0.34438486  0.56596631     0.32600
H768        H  0.75724712  0.37468863  0.51436174     0.35300
C769        C  0.58575466  0.28364574  0.47942023     0.20900
C770        C  0.57327410  0.26885334  0.45819792    -0.38900
C771        C  0.55003238  0.28062241  0.44710715     0.19900
C772        C  0.54006064  0.30529736  0.45612831     0.22600
C773        C  0.55275874  0.32034106  0.47720179    -0.39400
C774        C  0.57593700  0.30842748  0.48859576     0.21400
N775        N  0.60570446  0.27492611  0.49561365    -0.32700
C776        C  0.60829370  0.29379690  0.51594042    -0.10300
C777        C  0.59060494  0.31552958  0.51160131    -0.29100
N778        N  0.51677752  0.31116243  0.44318291    -0.45700
C779        C  0.51137607  0.28976723  0.42598367    -0.05000
C780        C  0.53233503  0.27061763  0.42779096    -0.22300
H781        H  0.58030862  0.24893860  0.45177307     0.19500
H782        H  0.54442548  0.33919008  0.48505997     0.18300
H783        H  0.58699943  0.33268420  0.52511521     0.14500
H784        H  0.53455532  0.25158192  0.41677817     0.14400
H785        H  0.61539817  0.25621977  0.49370097     0.32600
H786        H  0.50574430  0.32891886  0.44599050     0.35300
C787        C  0.56835440  0.27963658  0.58855270     0.20900
C788        C  0.54400099  0.26766547  0.59683316    -0.38900
C789        C  0.53515384  0.27544838  0.62261442     0.19900
C790        C  0.54890087  0.29436813  0.63859562     0.22600
C791        C  0.57398081  0.30556324  0.63071594    -0.39400
C792        C  0.58330342  0.29715237  0.60506327     0.21400
N793        N  0.58056003  0.27590575  0.56471668    -0.32700
C794        C  0.60398864  0.29069178  0.56567406    -0.10300
C795        C  0.60666328  0.30372018  0.59114336    -0.29100
N796        N  0.53475708  0.30013963  0.66114515    -0.45700
C797        C  0.51236556  0.28359733  0.66024814    -0.05000
C798        C  0.51224743  0.26800351  0.63623815    -0.22300
H799        H  0.53262048  0.25352924  0.58399445     0.19500
H800        H  0.58518502  0.31995416  0.64342281     0.18300
H801        H  0.62360284  0.31543553  0.59920819     0.14500
H802        H  0.49677346  0.25372553  0.62923161     0.14400
H803        H  0.57333344  0.26369683  0.54865044     0.32600
H804        H  0.54006671  0.31550665  0.67494835     0.35300
C805        C  0.30803766  0.55171688  0.75551346     0.20900
C806        C  0.29853774  0.54022726  0.73094496    -0.38900
C807        C  0.27317987  0.54937829  0.72195496     0.19900
C808        C  0.25883850  0.56915321  0.73584628     0.22600
C809        C  0.26843005  0.58079302  0.76034530    -0.39400
C810        C  0.29338881  0.57092807  0.76979300     0.21400
N811        N  0.33125358  0.54596120  0.76857853    -0.32700
C812        C  0.33083895  0.56025940  0.79242906    -0.10300
C813        C  0.30792128  0.57704492  0.79309546    -0.29100
N814        N  0.23573468  0.57494163  0.72257415    -0.45700
C815        C  0.23495331  0.55841017  0.70019279    -0.05000
C816        C  0.25820408  0.54219853  0.69921784    -0.22300
H817        H  0.30986384  0.52494851  0.71986800     0.19500
H818        H  0.25713291  0.59610767  0.77140459     0.18300
H819        H  0.30254366  0.59175185  0.80868513     0.14500
H820        H  0.26402543  0.52781393  0.68352530     0.14400
H821        H  0.34683970  0.53426043  0.76049136     0.32600
H822        H  0.22155480  0.58968034  0.72811474     0.35300
C823        C  0.22012502  0.46587406  0.59840236     0.20900
C824        C  0.21724915  0.47072047  0.62640855    -0.38900
C825        C  0.21772174  0.49826124  0.63472381     0.19900
C826        C  0.22039564  0.51920888  0.61644564     0.22600
C827        C  0.22318148  0.51438806  0.58852364    -0.39400
C828        C  0.22317139  0.48693138  0.58031085     0.21400
N829        N  0.21907609  0.44172510  0.58515712    -0.32700
C830        C  0.22159716  0.44729710  0.55832997    -0.10300
C831        C  0.22427311  0.47552217  0.55473333    -0.29100
N832        N  0.21931841  0.54353572  0.62910003    -0.45700
C833        C  0.21642898  0.53836512  0.65598664    -0.05000
C834        C  0.21512459  0.51016174  0.66010739    -0.22300
H835        H  0.21457165  0.45430863  0.64058828     0.19500
H836        H  0.22495141  0.53084474  0.57420096     0.18300
H837        H  0.22518160  0.48661121  0.53594691     0.14500
H838        H  0.21237414  0.49989620  0.67915422     0.14400
H839        H  0.21562769  0.42263403  0.59370609     0.32600
H840        H  0.21970272  0.56232603  0.61942030     0.35300
C841        C  0.27013010  0.73926270  0.53386995     0.20900
C842        C  0.29265745  0.74949341  0.51996448    -0.38900
C843        C  0.30534935  0.77252694  0.53175057     0.19900
C844        C  0.29668323  0.78424789  0.55577264     0.22600
C845        C  0.27399203  0.77412035  0.56960923    -0.39400
C846        C  0.26098119  0.75131378  0.55756978     0.21400
N847        N  0.25459071  0.71761359  0.52679058    -0.32700
C848        C  0.23494569  0.71593636  0.54591140    -0.10300
C849        C  0.23842660  0.73674436  0.56544412    -0.29100
N850        N  0.31225368  0.80602306  0.56258484    -0.45700
C851        C  0.33083117  0.80858030  0.54252875    -0.05000
C852        C  0.32690506  0.78785148  0.52291239    -0.22300
H853        H  0.29963707  0.74035336  0.50119184     0.19500
H854        H  0.26685231  0.78343811  0.58822728     0.18300
H855        H  0.22619146  0.74040509  0.58323933     0.14500
H856        H  0.33792184  0.78442630  0.50431652     0.14400
H857        H  0.25761769  0.70479217  0.51003604     0.32600
H858        H  0.31011196  0.81870459  0.57962460     0.35300
C859        C  0.21482338  0.65449159  0.48376700     0.20900
C860        C  0.21348982  0.64971593  0.45553945    -0.38900
C861        C  0.21510659  0.62219911  0.44712325     0.19900
C862        C  0.21756142  0.60132223  0.46550987     0.22600
C863        C  0.21863445  0.60606187  0.49352443    -0.39400
C864        C  0.21740988  0.63337350  0.50183294     0.21400
N865        N  0.21350782  0.67854574  0.49721123    -0.32700
C866        C  0.21561373  0.67270164  0.52406413    -0.10300
C867        C  0.21788244  0.64449913  0.52748026    -0.29100
N868        N  0.21816214  0.57701040  0.45287033    -0.45700
C869        C  0.21634617  0.58197741  0.42587222    -0.05000
C870        C  0.21414854  0.61013851  0.42159724    -0.22300
H871        H  0.21142869  0.66612126  0.44128213     0.19500
H872        H  0.22035572  0.58961205  0.50785119     0.18300
H873        H  0.21886370  0.63324527  0.54616998     0.14500
H874        H  0.21167439  0.62023062  0.40238856     0.14400
H875        H  0.21088811  0.69776303  0.48874085     0.32600
H876        H  0.21864812  0.55824659  0.46259345     0.35300
C877        C  0.23075978  0.65494713  0.60630394     0.20900
C878        C  0.24602516  0.63557837  0.62027180    -0.38900
C879        C  0.23216578  0.62126238  0.64040800     0.19900
C880        C  0.20516653  0.62589473  0.64621477     0.22600
C881        C  0.19014584  0.64573154  0.63273289    -0.39400
C882        C  0.20397309  0.65993781  0.61258447     0.21400
N883        N  0.23768046  0.66764344  0.58335237    -0.32700
C884        C  0.21495923  0.68033125  0.57453417    -0.10300
C885        C  0.19381584  0.67655265  0.59293216    -0.29100
N886        N  0.19522899  0.60628832  0.66216629    -0.45700
C887        C  0.21585589  0.58854574  0.66604727    -0.05000
C888        C  0.23952675  0.59799899  0.65370115    -0.22300
H889        H  0.26643757  0.63037324  0.61432245     0.19500
H890        H  0.16861254  0.64818770  0.63596406     0.18300
H891        H  0.17299831  0.68281605  0.59115009     0.14500
H892        H  0.25856137  0.58731543  0.65190585     0.14400
H893        H  0.25607535  0.66602157  0.57311729     0.32600
H894        H  0.17501027  0.60413557  0.66782804     0.35300
C895        C  0.47524261  0.77592345  0.35565522     0.20900
C896        C  0.46293931  0.75246702  0.34436981    -0.38900
C897        C  0.47523137  0.74178281  0.32109547     0.19900
C898        C  0.49792432  0.75363922  0.30979370     0.22600
C899        C  0.51046551  0.77698750  0.32131201    -0.39400
C900        C  0.49823806  0.78757189  0.34481830     0.21400
N901        N  0.46691960  0.79017214  0.37736589    -0.32700
C902        C  0.48499430  0.81107180  0.38114864    -0.10300
C903        C  0.50480946  0.81001027  0.36086943    -0.29100
N904        N  0.50568353  0.73940394  0.28774436    -0.45700
C905        C  0.48793371  0.71813407  0.28498316    -0.05000
C906        C  0.46867763  0.71902619  0.30569469    -0.22300
H907        H  0.44505994  0.74322829  0.35308515     0.19500
H908        H  0.52837110  0.78619977  0.31263159     0.18300
H909        H  0.52121523  0.82432819  0.35757441     0.14500
H910        H  0.45257467  0.70457474  0.30974182     0.14400
H911        H  0.44943875  0.78573230  0.38825300     0.32600
H912        H  0.52257292  0.74339053  0.27572157     0.35300
C913        C  0.42964296  0.65378610  0.26707987     0.20900
C914        C  0.40155793  0.64826350  0.26669128    -0.38900
C915        C  0.39396500  0.62077524  0.27028614     0.19900
C916        C  0.41294602  0.60052752  0.27379375     0.22600
C917        C  0.44087142  0.60599926  0.27394853    -0.39400
C918        C  0.44838005  0.63334648  0.27060621     0.21400
N919        N  0.44228059  0.67804095  0.26409351    -0.32700
C920        C  0.46933349  0.67314907  0.26623825    -0.10300
C921        C  0.47367630  0.64517318  0.26981307    -0.29100
N922        N  0.40095119  0.57596164  0.27546499    -0.45700
C923        C  0.37382302  0.58015770  0.27296646    -0.05000
C924        C  0.36879546  0.60809221  0.26979420    -0.22300
H925        H  0.38676731  0.66410260  0.26366252     0.19500
H926        H  0.45571448  0.59004820  0.27634588     0.18300
H927        H  0.49270690  0.63448480  0.27122735     0.14500
H928        H  0.34938309  0.61755373  0.26624241     0.14400
H929        H  0.43310683  0.69686907  0.26096043     0.32600
H930        H  0.41117125  0.55745827  0.27663679     0.35300
C931        C  0.70729321  0.57077030  0.35952482     0.20900
C932        C  0.68468458  0.58471002  0.34976688    -0.38900
C933        C  0.67220339  0.57328671  0.32666271     0.19900
C934        C  0.68113963  0.54963216  0.31429857     0.22600
C935        C  0.70428306  0.53597131  0.32368484    -0.39400
C936        C  0.71701417  0.54756605  0.34679216     0.21400
N937        N  0.72209421  0.57718092  0.38165279    -0.32700
C938        C  0.74199495  0.55825125  0.38299772    -0.10300
C939        C  0.73931149  0.53935177  0.36150637    -0.29100
N940        N  0.66487827  0.54262645  0.29321924    -0.45700
C941        C  0.64555935  0.56224800  0.29180436    -0.05000
C942        C  0.65002856  0.58187104  0.31243307    -0.22300
H943        H  0.67718961  0.60300153  0.35960906     0.19500
H944        H  0.71161524  0.51755649  0.31396460     0.18300
H945        H  0.75192680  0.52182190  0.35744149     0.14500
H946        H  0.63903201  0.60034620  0.31679800     0.14400
H947        H  0.71830729  0.59338285  0.39499295     0.32600
H948        H  0.66723364  0.52582063  0.28024458     0.35300
C949        C  0.56389765  0.51894646  0.27734395     0.20900
C950        C  0.53615477  0.51329880  0.27886601    -0.38900
C951        C  0.52884860  0.48576448  0.27729858     0.19900
C952        C  0.54754400  0.46519107  0.27412586     0.22600
C953        C  0.57558152  0.47088191  0.27260759    -0.39400
C954        C  0.58301880  0.49870783  0.27453127     0.21400
N955        N  0.57542612  0.54369611  0.27678423    -0.32700
C956        C  0.60254105  0.53980396  0.27399871    -0.10300
C957        C  0.60795552  0.51171593  0.27250936    -0.29100
N958        N  0.53479922  0.44078864  0.27190030    -0.45700
C959        C  0.50777700  0.44592429  0.27401825    -0.05000
C960        C  0.50360799  0.47401813  0.27712678    -0.22300
H961        H  0.52124070  0.52929604  0.28065091     0.19500
H962        H  0.59037904  0.45496802  0.26970193     0.18300
H963        H  0.62726453  0.50209492  0.26900531     0.14500
H964        H  0.48469166  0.48495236  0.27797366     0.14400
H965        H  0.56464365  0.56190229  0.27673817     0.32600
H966        H  0.54382310  0.42183943  0.26865798     0.35300
C967        C  0.58327531  0.62268987  0.28709099     0.20900
C968        C  0.56330657  0.63668777  0.30156911    -0.38900
C969        C  0.55077387  0.65794682  0.28771767     0.19900
C970        C  0.55794654  0.66494160  0.26159131     0.22600
C971        C  0.57856758  0.65154438  0.24754684    -0.39400
C972        C  0.59068264  0.63000952  0.26120568     0.21400
N973        N  0.59447100  0.59885839  0.29369025    -0.32700
C974        C  0.60888383  0.59056615  0.27173092    -0.10300
C975        C  0.60727103  0.61001718  0.25128930    -0.29100
N976        N  0.53921190  0.68103514  0.25053982    -0.45700
C977        C  0.51932867  0.68345626  0.26928117    -0.05000
C978        C  0.52671341  0.67061890  0.29333538    -0.22300
H979        H  0.55612260  0.62972656  0.32100134     0.19500
H980        H  0.58275282  0.65559400  0.22645014     0.18300
H981        H  0.61541676  0.60900969  0.23108867     0.14500
H982        H  0.51420956  0.66775059  0.31103841     0.14400
H983        H  0.59111361  0.58797876  0.31145459     0.32600
H984        H  0.53906978  0.68748010  0.23048467     0.35300
C985        C  0.12026292  0.70573439  0.65989705     0.20900
C986        C  0.10438602  0.68837574  0.67576503    -0.38900
C987        C  0.11848563  0.67125254  0.69337496     0.19900
C988        C  0.14649241  0.67153675  0.69535219     0.22600
C989        C  0.16240920  0.68934922  0.67981266    -0.39400
C990        C  0.14827103  0.70631413  0.66189988     0.21400
N991        N  0.11201360  0.71810444  0.63719385    -0.32700
C992        C  0.13469666  0.72630716  0.62422229    -0.10300
C993        C  0.15773318  0.71991643  0.63941892    -0.29100
N994        N  0.15517933  0.64896494  0.70792840    -0.45700
C995        C  0.13272128  0.63389654  0.71340161    -0.05000
C996        C  0.10948389  0.64755351  0.70513172    -0.22300
H997        H  0.08279690  0.68601098  0.67224168     0.19500
H998        H  0.18427703  0.68775328  0.67930049     0.18300
H999        H  0.17851465  0.72051016  0.63252944     0.14500
H1000       H  0.08923905  0.63896534  0.70333526     0.14400
H1001       H  0.09245469  0.71718184  0.62891311     0.32600
H1002       H  0.17517767  0.64212551  0.70857962     0.35300
C1003       C  0.16482715  0.39959499  0.66277272     0.20900
C1004       C  0.17969598  0.41796702  0.67934118    -0.38900
C1005       C  0.16473652  0.43329245  0.69818296     0.19900
C1006       C  0.13694584  0.43024808  0.70057862     0.22600
C1007       C  0.12223673  0.41130328  0.68462192    -0.39400
C1008       C  0.13711233  0.39621044  0.66561632     0.21400
N1009       N  0.17276294  0.38971224  0.63854632    -0.32700
C1010       C  0.15001265  0.38076104  0.62548840    -0.10300
C1011       C  0.12761405  0.38348508  0.64231134    -0.29100
N1012       N  0.12641386  0.45195176  0.71352763    -0.45700
C1013       C  0.14726968  0.46943030  0.71881291    -0.05000
C1014       C  0.17164337  0.45789347  0.71045309    -0.22300
H1015       H  0.20077857  0.42258749  0.67539745     0.19500
H1016       H  0.10028491  0.41104840  0.68441849     0.18300
H1017       H  0.10656340  0.38226357  0.63596325     0.14500
H1018       H  0.19081808  0.46849473  0.70838934     0.14400
H1019       H  0.19142709  0.39373119  0.62947632     0.32600
H1020       H  0.10584153  0.45684261  0.71407849     0.35300
C1021       C  0.11714340  0.44537009  0.39357535     0.20900
C1022       C  0.10204832  0.42902411  0.41111083    -0.38900
C1023       C  0.11686626  0.41094288  0.42706466     0.19900
C1024       C  0.14481314  0.40904773  0.42559471     0.22600
C1025       C  0.15987999  0.42493497  0.40748148    -0.39400
C1026       C  0.14504227  0.44322608  0.39161484     0.21400
N1027       N  0.10867231  0.46868330  0.38248055    -0.32700
C1028       C  0.13115918  0.48176096  0.37367241    -0.10300
C1029       C  0.15416934  0.46613917  0.37836384    -0.29100
N1030       N  0.15465289  0.39641385  0.44759894    -0.45700
C1031       C  0.13299968  0.39087598  0.46344970    -0.05000
C1032       C  0.10909813  0.39895043  0.45084272    -0.22300
H1033       H  0.08071957  0.43261558  0.41460125     0.19500
H1034       H  0.18181999  0.42552360  0.40819158     0.18300
H1035       H  0.17503564  0.47300608  0.37709367     0.14500
H1036       H  0.08943188  0.40079301  0.46028411     0.14400
H1037       H  0.08942522  0.47716273  0.38463632     0.32600
H1038       H  0.17499933  0.39598050  0.45362652     0.35300
C1039       C  0.15603542  0.68387415  0.38913118     0.20900
C1040       C  0.17219440  0.70033590  0.40639828    -0.38900
C1041       C  0.15836796  0.71870111  0.42330920     0.19900
C1042       C  0.13042377  0.72110900  0.42244862     0.22600
C1043       C  0.11435256  0.70518580  0.40466172    -0.39400
C1044       C  0.12810162  0.68628852  0.38836001     0.21400
N1045       N  0.16353651  0.66010174  0.37764429    -0.32700
C1046       C  0.14035312  0.64687923  0.37024851    -0.10300
C1047       C  0.11791148  0.66295578  0.37601771    -0.29100
N1048       N  0.12154067  0.73355106  0.44507073    -0.45700
C1049       C  0.14359599  0.73817104  0.46103910    -0.05000
C1050       C  0.16705145  0.73010247  0.44762568    -0.22300
H1051       H  0.19363224  0.69660801  0.40899023     0.19500
H1052       H  0.09246587  0.70483469  0.40617614     0.18300
H1053       H  0.09693776  0.65624533  0.37607464     0.14500
H1054       H  0.18684387  0.72738669  0.45677257     0.14400
H1055       H  0.18276389  0.65145418  0.37899233     0.32600
H1056       H  0.10139882  0.73388841  0.45149492     0.35300
C1057       C  0.36833771  0.22897514  0.39012761     0.20900
C1058       C  0.35340901  0.24414942  0.40916366    -0.38900
C1059       C  0.33592589  0.22918141  0.42582834     0.19900
C1060       C  0.33351671  0.20107712  0.42371216     0.22600
C1061       C  0.34807542  0.18597488  0.40441415    -0.39400
C1062       C  0.36554133  0.20091524  0.38777763     0.21400
N1063       N  0.39104110  0.23736493  0.37764604    -0.32700
C1064       C  0.40325227  0.21458101  0.36791946    -0.10300
C1065       C  0.38737994  0.19161020  0.37318659    -0.29100
N1066       N  0.32139325  0.19100959  0.44580566    -0.45700
C1067       C  0.31620876  0.21263385  0.46232669    -0.05000
C1068       C  0.32448660  0.23684544  0.45020124    -0.22300
H1069       H  0.35749265  0.26562181  0.41289268     0.19500
H1070       H  0.34821203  0.16388568  0.40451262     0.18300
H1071       H  0.39379147  0.17057026  0.37161390     0.14500
H1072       H  0.32652749  0.25665031  0.46005048     0.14400
H1073       H  0.40011574  0.25661225  0.37997507     0.32600
H1074       H  0.32060160  0.17047082  0.45119363     0.35300
C1075       C  0.63963600  0.20171776  0.42215763     0.20900
C1076       C  0.62386282  0.18557139  0.40427655    -0.38900
C1077       C  0.60568283  0.19952117  0.38756739     0.19900
C1078       C  0.60358295  0.22766869  0.38826432     0.22600
C1079       C  0.61968426  0.24387888  0.40588054    -0.39400
C1080       C  0.63762833  0.22987187  0.42290748     0.21400
N1081       N  0.65225403  0.19284519  0.44456847    -0.32700
C1082       C  0.65776457  0.21517999  0.46020331    -0.10300
C1083       C  0.64963156  0.23874886  0.44688756    -0.29100
N1084       N  0.58048087  0.23541789  0.37602275    -0.45700
C1085       C  0.56734611  0.21217535  0.36817981    -0.05000
C1086       C  0.58285841  0.18945302  0.37448862    -0.22300
H1087       H  0.62333196  0.16354733  0.40571113     0.19500
H1088       H  0.61603841  0.26550028  0.40855727     0.18300
H1089       H  0.64788350  0.25896536  0.45579205     0.14500
H1090       H  0.57595457  0.16841425  0.37435027     0.14400
H1091       H  0.65276647  0.17261363  0.45096842     0.32600
H1092       H  0.57198930  0.25485562  0.37726576     0.35300
C1093       C  0.36979390  0.20244305  0.70053718     0.20900
C1094       C  0.35121955  0.18694337  0.68497528    -0.38900
C1095       C  0.33607260  0.20120302  0.66573728     0.19900
C1096       C  0.33893091  0.22907127  0.66240203     0.22600
C1097       C  0.35715987  0.24471806  0.67836212    -0.39400
C1098       C  0.37255667  0.23035971  0.69744947     0.21400
N1099       N  0.39116180  0.19249837  0.71411524    -0.32700
C1100       C  0.40806619  0.21387798  0.71929010    -0.10300
C1101       C  0.39663470  0.23799780  0.70994952    -0.29100
N1102       N  0.32775738  0.23654418  0.63869794    -0.45700
C1103       C  0.31832911  0.21333173  0.62650973    -0.05000
C1104       C  0.32265530  0.19100301  0.64312756    -0.22300
H1105       H  0.35101932  0.16486445  0.68547056     0.19500
H1106       H  0.36144060  0.26589403  0.67393334     0.18300
H1107       H  0.40695854  0.25741763  0.70776126     0.14500
H1108       H  0.32084748  0.16969077  0.63725094     0.14400
H1109       H  0.39617146  0.17188405  0.71548556     0.32600
H1110       H  0.33033595  0.25544444  0.62946724     0.35300
C1111       C  0.64141836  0.20249666  0.66330024     0.20900
C1112       C  0.62757181  0.18652948  0.68220787    -0.38900
C1113       C  0.60964636  0.20041013  0.69937806     0.19900
C1114       C  0.60592624  0.22833827  0.69805675     0.22600
C1115       C  0.62002730  0.24436981  0.67933764    -0.39400
C1116       C  0.63779521  0.23043314  0.66200416     0.21400
N1117       N  0.65354630  0.19316576  0.64070886    -0.32700
C1118       C  0.65729436  0.21505984  0.62463645    -0.10300
C1119       C  0.64822119  0.23873103  0.63756168    -0.29100
N1120       N  0.58298601  0.23545062  0.71080084    -0.45700
C1121       C  0.57144982  0.21195101  0.71944158    -0.05000
C1122       C  0.58802277  0.18983778  0.71341005    -0.22300
H1123       H  0.62815559  0.16445569  0.68132124     0.19500
H1124       H  0.61500837  0.26557481  0.67623479     0.18300
H1125       H  0.64497196  0.25832731  0.62823152     0.14500
H1126       H  0.58223183  0.16849375  0.71406551     0.14400
H1127       H  0.65511849  0.17270022  0.63474359     0.32600
H1128       H  0.57326831  0.25423196  0.70911458     0.35300
C1129       C  0.64398774  0.67811673  0.17918355     0.20900
C1130       C  0.62869646  0.69542166  0.16274493    -0.38900
C1131       C  0.61090021  0.71303238  0.17621413     0.19900
C1132       C  0.60894222  0.71392813  0.20422801     0.22600
C1133       C  0.62492792  0.69721423  0.22073156    -0.39400
C1134       C  0.64224366  0.67906113  0.20719534     0.21400
N1135       N  0.65556523  0.65475188  0.17094475    -0.32700
C1136       C  0.66080893  0.64033304  0.19359608    -0.10300
C1137       C  0.65346664  0.65525533  0.21666173    -0.29100
N1138       N  0.58566460  0.72589163  0.21166527    -0.45700
C1139       C  0.57223541  0.73170330  0.18840757    -0.05000
C1140       C  0.58781938  0.72478801  0.16594775    -0.22300
H1141       H  0.62786811  0.69261149  0.14093209     0.19500
H1142       H  0.62133213  0.69573233  0.24230038     0.18300
H1143       H  0.65169877  0.64754544  0.23704698     0.14500
H1144       H  0.58074317  0.72322814  0.14512941     0.14400
H1145       H  0.65570031  0.64712204  0.15104772     0.32600
H1146       H  0.57722159  0.72536948  0.23103054     0.35300
C1147       C  0.33294932  0.68082740  0.17922520     0.20900
C1148       C  0.34950358  0.69693200  0.16274958    -0.38900
C1149       C  0.36886394  0.71333670  0.17620002     0.19900
C1150       C  0.37117138  0.71428264  0.20420873     0.22600
C1151       C  0.35401664  0.69883313  0.22074101    -0.39400
C1152       C  0.33511508  0.68181200  0.20725202     0.21400
N1153       N  0.31995696  0.65792149  0.17110574    -0.32700
C1154       C  0.31463394  0.64362749  0.19379873    -0.10300
C1155       C  0.32287508  0.65846173  0.21677994    -0.29100
N1156       N  0.39526613  0.72511679  0.21171205    -0.45700
C1157       C  0.40866029  0.73040100  0.18845495    -0.05000
C1158       C  0.39254330  0.72390735  0.16596034    -0.22300
H1159       H  0.34992385  0.69391546  0.14095938     0.19500
H1160       H  0.35761754  0.69735992  0.24234353     0.18300
H1161       H  0.32511928  0.65055713  0.23705504     0.14500
H1162       H  0.39921323  0.72227309  0.14512940     0.14400
H1163       H  0.31958102  0.65006316  0.15128708     0.32600
H1164       H  0.40379404  0.72460700  0.23115598     0.35300
C1165       C  0.36797568  0.40694273  0.20501369     0.20900
C1166       C  0.35063085  0.42361825  0.22033862    -0.38900
C1167       C  0.33332034  0.44064112  0.20558761     0.19900
C1168       C  0.33305891  0.44074531  0.17749693     0.22600
C1169       C  0.34973993  0.42343815  0.16219855    -0.39400
C1170       C  0.36733288  0.40679141  0.17693391     0.21400
N1171       N  0.39098791  0.39547296  0.21403749    -0.32700
C1172       C  0.40539080  0.38851287  0.19170887    -0.10300
C1173       C  0.39090507  0.39471260  0.16824960    -0.29100
N1174       N  0.32149630  0.46365361  0.16844760    -0.45700
C1175       C  0.31484050  0.47863135  0.19068153    -0.05000
C1176       C  0.32106726  0.46442331  0.21420820    -0.22300
H1177       H  0.35307311  0.42591028  0.24209494     0.19500
H1178       H  0.35157094  0.42553913  0.14045450     0.18300
H1179       H  0.39882084  0.39515873  0.14783135     0.14500
H1180       H  0.32188332  0.47285850  0.23461490     0.14400
H1181       H  0.39842486  0.39654913  0.23393040     0.32600
H1182       H  0.32253996  0.47082715  0.14861367     0.35300
C1183       C  0.60743809  0.40090440  0.18317377     0.20900
C1184       C  0.62446701  0.41713691  0.16729543    -0.38900
C1185       C  0.64144789  0.43559100  0.18138422     0.19900
C1186       C  0.64207175  0.43729385  0.20944136     0.22600
C1187       C  0.62550905  0.42053576  0.22536735    -0.39400
C1188       C  0.60791890  0.40258842  0.21123931     0.21400
N1189       N  0.58439151  0.38882379  0.17444017    -0.32700
C1190       C  0.56950712  0.38360222  0.19676604    -0.10300
C1191       C  0.58400100  0.39105916  0.22016125    -0.29100
N1192       N  0.65384492  0.46088878  0.21767561    -0.45700
C1193       C  0.65993325  0.47472625  0.19487627    -0.05000
C1194       C  0.65311068  0.45920372  0.17189972    -0.22300
H1195       H  0.62186191  0.41809674  0.14550279     0.19500
H1196       H  0.62376351  0.42391282  0.24701984     0.18300
H1197       H  0.57581825  0.39319875  0.24038261     0.14500
H1198       H  0.65191127  0.46646252  0.15127829     0.14400
H1199       H  0.57706214  0.38890263  0.15449387     0.32600
H1200       H  0.65328905  0.46911620  0.23732498     0.35300
C1201       C  0.96302794  0.56890208  0.35563252     0.20900
C1202       C  0.98665556  0.56647569  0.34010395    -0.38900
C1203       C  0.01114618  0.56780655  0.35476167     0.19900
C1204       C  0.01193872  0.57119596  0.38269871     0.22600
C1205       C  0.98839622  0.57354174  0.39817697    -0.39400
C1206       C  0.96400216  0.57229986  0.38355859     0.21400
N1207       N  0.93719279  0.56802858  0.34674003    -0.32700
C1208       C  0.92180043  0.57087947  0.36925059    -0.10300
C1209       C  0.93777123  0.57360378  0.39253671    -0.29100
N1210       N  0.03756767  0.57146901  0.39190967    -0.45700
C1211       C  0.05324530  0.56820831  0.36971942    -0.05000
C1212       C  0.03758549  0.56590818  0.34612106    -0.22300
H1213       H  0.98602063  0.56366175  0.31829472     0.19500
H1214       H  0.98902602  0.57603709  0.42002294     0.18300
H1215       H  0.93105020  0.57583337  0.41329264     0.14500
H1216       H  0.04459008  0.56296508  0.32554518     0.14400
H1217       H  0.93045643  0.56529154  0.32674144     0.32600
H1218       H  0.04400101  0.57356149  0.41207552     0.35300
C1219       C  0.96625385  0.38752976  0.55166091     0.20900
C1220       C  0.98943942  0.37137324  0.54917636    -0.38900
C1221       C  0.01429081  0.38537359  0.55064772     0.19900
C1222       C  0.01604273  0.41339376  0.55428237     0.22600
C1223       C  0.99275888  0.42963434  0.55672448    -0.39400
C1224       C  0.96778136  0.41557184  0.55525396     0.21400
N1225       N  0.94032982  0.37901245  0.55049544    -0.32700
C1226       C  0.92506603  0.40171290  0.55325718    -0.10300
C1227       C  0.94143850  0.42498732  0.55631236    -0.29100
N1228       N  0.04216832  0.42166381  0.55475238    -0.45700
C1229       C  0.05700159  0.39866726  0.55144757    -0.05000
C1230       C  0.04031315  0.37569596  0.54878809    -0.22300
H1231       H  0.98821060  0.34947440  0.54618082     0.19500
H1232       H  0.99398921  0.45156736  0.55940644     0.18300
H1233       H  0.93495232  0.44592838  0.55860731     0.14500
H1234       H  0.04642849  0.35472909  0.54569571     0.14400
H1235       H  0.93341827  0.35896914  0.54758305     0.32600
H1236       H  0.04944586  0.44164836  0.55702587     0.35300
C1237       C  0.83237095  0.44572817  0.39111821     0.20900
C1238       C  0.81715736  0.42818881  0.40757793    -0.38900
C1239       C  0.83192404  0.41263772  0.42623752     0.19900
C1240       C  0.85989494  0.41437537  0.42825662     0.22600
C1241       C  0.87513006  0.43139416  0.41139155    -0.39400
C1242       C  0.86037002  0.44704108  0.39290736     0.21400
N1243       N  0.82281310  0.46732551  0.37752652    -0.32700
C1244       C  0.84469597  0.48283556  0.37113270    -0.10300
C1245       C  0.86845975  0.47037579  0.37986483    -0.29100
N1246       N  0.86849396  0.40369429  0.45173720    -0.45700
C1247       C  0.84603035  0.39534483  0.46505486    -0.05000
C1248       C  0.82288641  0.39996888  0.44939034    -0.22300
H1249       H  0.79524554  0.42907051  0.40812735     0.19500
H1250       H  0.89663190  0.43472657  0.41472498     0.18300
H1251       H  0.88840762  0.47973157  0.38109890     0.14500
H1252       H  0.80210567  0.39905943  0.45625325     0.14400
H1253       H  0.80258797  0.47346252  0.37676667     0.32600
H1254       H  0.88795252  0.40587601  0.46006115     0.35300
C1255       C  0.96366357  0.74186577  0.53315275     0.20900
C1256       C  0.98723985  0.75770002  0.53735465    -0.38900
C1257       C  0.01182108  0.74356852  0.53569587     0.19900
C1258       C  0.01278574  0.71578760  0.53033301     0.22600
C1259       C  0.98923296  0.69995986  0.52619818    -0.39400
C1260       C  0.96467145  0.71408280  0.52782992     0.21400
N1261       N  0.93782958  0.75034272  0.53401218    -0.32700
C1262       C  0.92228466  0.72779348  0.52929936    -0.10300
C1263       C  0.93829409  0.70477267  0.52534002    -0.29100
N1264       N  0.03853575  0.70710228  0.53020605    -0.45700
C1265       C  0.05410318  0.72947978  0.53552430    -0.05000
C1266       C  0.03821025  0.75265925  0.53901381    -0.22300
H1267       H  0.98648997  0.77938302  0.54172954     0.19500
H1268       H  0.98997656  0.67821076  0.52218451     0.18300
H1269       H  0.93153076  0.68399416  0.52153753     0.14500
H1270       H  0.04503008  0.77326038  0.54365231     0.14400
H1271       H  0.93115895  0.77015905  0.53800481     0.32600
H1272       H  0.04512289  0.68713979  0.52687884     0.35300
C1273       C  0.81244312  0.71892368  0.41553902     0.20900
C1274       C  0.79719088  0.70026712  0.39962046    -0.38900
C1275       C  0.81176729  0.68429708  0.38097921     0.19900
C1276       C  0.83951389  0.68718882  0.37797924     0.22600
C1277       C  0.85449931  0.70674298  0.39291208    -0.39400
C1278       C  0.84006343  0.72228303  0.41191652     0.21400
N1279       N  0.80515803  0.72915582  0.43986791    -0.32700
C1280       C  0.82822768  0.73843447  0.45215354    -0.10300
C1281       C  0.85015286  0.73539806  0.43477767    -0.29100
N1282       N  0.84982898  0.66488244  0.36587483    -0.45700
C1283       C  0.82885828  0.64728120  0.36161395    -0.05000
C1284       C  0.80464039  0.65922951  0.36982304    -0.22300
H1285       H  0.77616412  0.69588429  0.40401603     0.19500
H1286       H  0.87644484  0.70700622  0.39263729     0.18300
H1287       H  0.87135758  0.73687834  0.44050471     0.14500
H1288       H  0.78543457  0.64885971  0.37241232     0.14400
H1289       H  0.78671263  0.72540627  0.44945364     0.32600
H1290       H  0.87038201  0.65993845  0.36515764     0.35300
C1291       C  0.96294173  0.54873166  0.72174357     0.20900
C1292       C  0.98642580  0.54864385  0.73799677    -0.38900
C1293       C  0.01104758  0.54728308  0.72401458     0.19900
C1294       C  0.01217988  0.54615955  0.69597172     0.22600
C1295       C  0.98867910  0.54627269  0.67970180    -0.39400
C1296       C  0.96403579  0.54754500  0.69369795     0.21400
N1297       N  0.93715691  0.55044587  0.73012886    -0.32700
C1298       C  0.92169841  0.55036910  0.70729115    -0.10300
C1299       C  0.93770020  0.54847379  0.68413504    -0.29100
N1300       N  0.03804557  0.54543227  0.68762120    -0.45700
C1301       C  0.05347802  0.54609641  0.71049932    -0.05000
C1302       C  0.03737760  0.54725444  0.73361409    -0.22300
H1303       H  0.98558957  0.54975152  0.75991528     0.19500
H1304       H  0.98953015  0.54559742  0.65777214     0.18300
H1305       H  0.93099455  0.54829285  0.66317824     0.14500
H1306       H  0.04405480  0.54834548  0.75456680     0.14400
H1307       H  0.93048832  0.55190462  0.75015278     0.32600
H1308       H  0.04480590  0.54488656  0.66759423     0.35300
C1309       C  0.84177731  0.43743422  0.70347862     0.20900
C1310       C  0.85765880  0.41915053  0.68844993    -0.38900
C1311       C  0.84396141  0.40305876  0.66893242     0.19900
C1312       C  0.81619583  0.40459935  0.66499790     0.22600
C1313       C  0.80014734  0.42212362  0.68078211    -0.39400
C1314       C  0.81395320  0.43872051  0.69985741     0.21400
N1315       N  0.85106867  0.46026665  0.71590541    -0.32700
C1316       C  0.82940889  0.47671471  0.71942070    -0.10300
C1317       C  0.80578066  0.46340895  0.71061699    -0.29100
N1318       N  0.80929596  0.39423804  0.64047537    -0.45700
C1319       C  0.83272445  0.38683369  0.62831814    -0.05000
C1320       C  0.85458891  0.39113974  0.64593875    -0.22300
H1321       H  0.87958488  0.42035564  0.68902907     0.19500
H1322       H  0.77904401  0.42548794  0.67580662     0.18300
H1323       H  0.78635707  0.47284232  0.70702434     0.14500
H1324       H  0.87579408  0.39126081  0.64040213     0.14400
H1325       H  0.87138540  0.46645872  0.71692747     0.32600
H1326       H  0.79065329  0.39691637  0.63070765     0.35300
C1327       C  0.85816786  0.67606068  0.68635195     0.20900
C1328       C  0.87377643  0.69149722  0.66844333    -0.38900
C1329       C  0.85956965  0.70965042  0.65200643     0.19900
C1330       C  0.83170627  0.71240405  0.65325514     0.22600
C1331       C  0.81604139  0.69701796  0.67137902    -0.39400
C1332       C  0.83030143  0.67867191  0.68780284     0.21400
N1333       N  0.86623819  0.65334198  0.69884696    -0.32700
C1334       C  0.84355260  0.64083509  0.70792770    -0.10300
C1335       C  0.82072795  0.65642765  0.70195533    -0.29100
N1336       N  0.82248087  0.72565596  0.63130557    -0.45700
C1337       C  0.84443775  0.73066302  0.61564448    -0.05000
C1338       C  0.86792944  0.72157405  0.62837284    -0.22300
H1339       H  0.89509329  0.68745828  0.66540195     0.19500
H1340       H  0.79410415  0.69709539  0.67057879     0.18300
H1341       H  0.79976373  0.64987200  0.70322859     0.14500
H1342       H  0.88766340  0.71932398  0.61916376     0.14400
H1343       H  0.88545189  0.64463224  0.69743659     0.32600
H1344       H  0.80220861  0.72699217  0.62520664     0.35300
C1345       C  0.66428098  0.03640540  0.53333011     0.20900
C1346       C  0.68010768  0.06022837  0.53574738    -0.38900
C1347       C  0.66574936  0.08476163  0.53673746     0.19900
C1348       C  0.63772362  0.08558102  0.53538942     0.22600
C1349       C  0.62183766  0.06169425  0.53302901    -0.39400
C1350       C  0.63624057  0.03707242  0.53210728     0.21400
N1351       N  0.67316323  0.01059427  0.53217105    -0.32700
C1352       C  0.65068054  0.99459856  0.53029685    -0.10300
C1353       C  0.62720690  0.01034379  0.53022532    -0.29100
N1354       N  0.62905964  0.11152499  0.53672495    -0.45700
C1355       C  0.65177840  0.12721621  0.53894436    -0.05000
C1356       C  0.67501997  0.11126698  0.53902433    -0.22300
H1357       H  0.70202114  0.05969438  0.53682657     0.19500
H1358       H  0.59992002  0.06223362  0.53206463     0.18300
H1359       H  0.60640172  0.00319250  0.52915738     0.14500
H1360       H  0.69588981  0.11816742  0.54047124     0.14400
H1361       H  0.69330648  0.00421718  0.53293373     0.32600
H1362       H  0.60899718  0.11815608  0.53606576     0.35300
C1363       C  0.48972388  0.03200148  0.72910671     0.20900
C1364       C  0.48988437  0.05568240  0.74554415    -0.38900
C1365       C  0.48825970  0.08046963  0.73163964     0.19900
C1366       C  0.48669371  0.08142533  0.70360087     0.22600
C1367       C  0.48652346  0.05788818  0.68728044    -0.39400
C1368       C  0.48805971  0.03325639  0.70110149     0.21400
N1369       N  0.49112205  0.00588814  0.73708602    -0.32700
C1370       C  0.49028198  0.99066725  0.71389442    -0.10300
C1371       C  0.48838998  0.00701305  0.69112282    -0.29100
N1372       N  0.48596874  0.10724385  0.69512785    -0.45700
C1373       C  0.48715753  0.12296878  0.71785209    -0.05000
C1374       C  0.48844977  0.10710737  0.74111975    -0.22300
H1375       H  0.49129221  0.05488063  0.76743775     0.19500
H1376       H  0.48540485  0.05870794  0.66537158     0.18300
H1377       H  0.48741045  0.00052801  0.67005841     0.14500
H1378       H  0.48986596  0.11412143  0.76199928     0.14400
H1379       H  0.49256986  0.99887125  0.75694979     0.32600
H1380       H  0.48513275  0.11378489  0.67506059     0.35300
C1381       C  0.61197642  0.89568933  0.68505032     0.20900
C1382       C  0.62905466  0.88055330  0.66787126    -0.38900
C1383       C  0.64567055  0.89573637  0.65046516     0.19900
C1384       C  0.64543675  0.92397531  0.65041327     0.22600
C1385       C  0.62899996  0.93905338  0.66811003    -0.39400
C1386       C  0.61227112  0.92392492  0.68526775     0.21400
N1387       N  0.58975827  0.88629882  0.69778815    -0.32700
C1388       C  0.57566114  0.90862382  0.70585136    -0.10300
C1389       C  0.58945682  0.93236837  0.69880830    -0.29100
N1390       N  0.65668019  0.93338470  0.62759405    -0.45700
C1391       C  0.66367787  0.91123319  0.61254486    -0.05000
C1392       C  0.65800052  0.88739304  0.62670874    -0.22300
H1393       H  0.62708698  0.85860271  0.66580317     0.19500
H1394       H  0.62691142  0.96092670  0.66628413     0.18300
H1395       H  0.58143818  0.95286910  0.69919706     0.14500
H1396       H  0.65775465  0.86683692  0.61838570     0.14400
H1397       H  0.58259844  0.86617064  0.69732286     0.32600
H1398       H  0.65525545  0.95335633  0.62058811     0.35300
C1399       C  0.30569183  0.03333174  0.54747891     0.20900
C1400       C  0.29004940  0.05710167  0.54915512    -0.38900
C1401       C  0.30431113  0.08180368  0.54639324     0.19900
C1402       C  0.33203024  0.08273031  0.54224072     0.22600
C1403       C  0.34764238  0.05895631  0.54037561    -0.39400
C1404       C  0.33339793  0.03426568  0.54324349     0.21400
N1405       N  0.29703512  0.00739426  0.54986392    -0.32700
C1406       C  0.31938958  0.99171006  0.54721002    -0.10300
C1407       C  0.34246167  0.00771825  0.54300563    -0.29100
N1408       N  0.34083722  0.10869725  0.54077386    -0.45700
C1409       C  0.31856514  0.12442417  0.54390314    -0.05000
C1410       C  0.29538132  0.10840067  0.54741904    -0.22300
H1411       H  0.26840815  0.05642022  0.55258266     0.19500
H1412       H  0.36932458  0.05964569  0.53720217     0.18300
H1413       H  0.36304688  0.00084290  0.54011245     0.14500
H1414       H  0.27484743  0.11530028  0.55058774     0.14400
H1415       H  0.27715855  0.00075694  0.55311973     0.32600
H1416       H  0.36077704  0.11532832  0.53788579     0.35300
C1417       C  0.33742049  0.88399614  0.66210055     0.20900
C1418       C  0.35722432  0.86835967  0.67516809    -0.38900
C1419       C  0.37451942  0.88249814  0.69330076     0.19900
C1420       C  0.37209512  0.91023331  0.69830210     0.22600
C1421       C  0.35214212  0.92580777  0.68546316    -0.39400
C1422       C  0.33506511  0.91174849  0.66708612     0.21400
N1423       N  0.32435889  0.87694456  0.63900079    -0.32700
C1424       C  0.31451417  0.90032511  0.62853899    -0.10300
C1425       C  0.32007097  0.92227784  0.64604409    -0.29100
N1426       N  0.39454205  0.92010584  0.71068905    -0.45700
C1427       C  0.41163127  0.89879625  0.71325582    -0.05000
C1428       C  0.39959639  0.87489636  0.70304616    -0.22300
H1429       H  0.36104263  0.84742684  0.66911437     0.19500
H1430       H  0.35212572  0.94786165  0.68710038     0.18300
H1431       H  0.31849406  0.94369128  0.64117511     0.14500
H1432       H  0.40970216  0.85579327  0.69876387     0.14400
H1433       H  0.32659104  0.85847364  0.62842747     0.32600
H1434       H  0.39962796  0.94072368  0.71329247     0.35300
C1435       C  0.48273986  0.03540424  0.38348648     0.20900
C1436       C  0.48371796  0.05928869  0.39948418    -0.38900
C1437       C  0.48256147  0.08385031  0.38528131     0.19900
C1438       C  0.48058940  0.08459199  0.35727128     0.22600
C1439       C  0.47955372  0.06066173  0.34125959    -0.39400
C1440       C  0.48071208  0.03606416  0.35547614     0.21400
N1441       N  0.48369634  0.00956194  0.39212055    -0.32700
C1442       C  0.48227447  0.99362560  0.36947374    -0.10300
C1443       C  0.48035681  0.00937173  0.34619339    -0.29100
N1444       N  0.48034731  0.11052978  0.34868639    -0.45700
C1445       C  0.48222861  0.12635983  0.37140523    -0.05000
C1446       C  0.48353726  0.11046076  0.39461790    -0.22300
H1447       H  0.48541612  0.05878427  0.42137348     0.19500
H1448       H  0.47811674  0.06115917  0.31935593     0.18300
H1449       H  0.47892609  0.00224776  0.32535110     0.14500
H1450       H  0.48534782  0.11745152  0.41547956     0.14400
H1451       H  0.48522315  0.00314512  0.41218960     0.32600
H1452       H  0.47922677  0.11706298  0.32863380     0.35300
C1453       C  0.36262994  0.92043550  0.39407552     0.20900
C1454       C  0.34506855  0.93570674  0.41044131    -0.38900
C1455       C  0.32799485  0.92077805  0.42745149     0.19900
C1456       C  0.32830874  0.89255749  0.42815697     0.22600
C1457       C  0.34549927  0.87722419  0.41129439    -0.39400
C1458       C  0.36265631  0.89219802  0.39427586     0.21400
N1459       N  0.38494758  0.92998232  0.38181206    -0.32700
C1460       C  0.39951338  0.90788162  0.37422588    -0.10300
C1461       C  0.38591826  0.88391317  0.38118188    -0.29100
N1462       N  0.31627103  0.88371000  0.45086402    -0.45700
C1463       C  0.30889798  0.90632237  0.46509246    -0.05000
C1464       C  0.31511759  0.92970723  0.45054914    -0.22300
H1465       H  0.34688309  0.95769390  0.41219914     0.19500
H1466       H  0.34770604  0.85542078  0.41364195     0.18300
H1467       H  0.39418550  0.86352027  0.38104426     0.14500
H1468       H  0.31549574  0.95042554  0.45848756     0.14400
H1469       H  0.39176561  0.95023280  0.38212143     0.32600
H1470       H  0.31757370  0.86397208  0.45849815     0.35300
C1471       C  0.60006638  0.88988206  0.37765970     0.20900
C1472       C  0.61578976  0.87372509  0.39493628    -0.38900
C1473       C  0.63479132  0.88761529  0.41149613     0.19900
C1474       C  0.63852702  0.91559622  0.41032707     0.22600
C1475       C  0.62313630  0.93170102  0.39272480    -0.39400
C1476       C  0.60355896  0.91791405  0.37678452     0.21400
N1477       N  0.57596649  0.88260148  0.36672153    -0.32700
C1478       C  0.56338005  0.90603683  0.35992268    -0.10300
C1479       C  0.58043775  0.92838003  0.36512474    -0.29100
N1480       N  0.65215110  0.92477323  0.43239179    -0.45700
C1481       C  0.65640727  0.90285683  0.44827109    -0.05000
C1482       C  0.64640638  0.87921636  0.43549926    -0.22300
H1483       H  0.61107208  0.85237327  0.39781572     0.19500
H1484       H  0.62378713  0.95376593  0.39408900     0.18300
H1485       H  0.57450290  0.94960432  0.36565506     0.14500
H1486       H  0.64329454  0.85958759  0.44482157     0.14400
H1487       H  0.56659899  0.86353066  0.36862015     0.32600
H1488       H  0.65407980  0.94520269  0.43851040     0.35300
C1489       C  0.64793275  0.55636947  0.06883773     0.20900
C1490       C  0.63273347  0.55556375  0.04474183    -0.38900
C1491       C  0.64774069  0.55611791  0.02078588     0.19900
C1492       C  0.67578992  0.55754440  0.02070444     0.22600
C1493       C  0.69105479  0.55843633  0.04489236    -0.39400
C1494       C  0.67599460  0.55766291  0.06895664     0.21400
N1495       N  0.63836118  0.55563628  0.09421281    -0.32700
C1496       C  0.66043860  0.55631751  0.11068891    -0.10300
C1497       C  0.68432388  0.55761402  0.09574374    -0.29100
N1498       N  0.68510604  0.55744460  0.99511507    -0.45700
C1499       C  0.66273192  0.55589031  0.97899071    -0.05000
C1500       C  0.63912329  0.55506883  0.99424773    -0.22300
H1501       H  0.61081259  0.55432784  0.04465002     0.19500
H1502       H  0.71298617  0.55936661  0.04497308     0.18300
H1503       H  0.70492478  0.55842688  0.10344213     0.14500
H1504       H  0.61842204  0.55375102  0.98687225     0.14400
H1505       H  0.61804342  0.55462988  0.09997699     0.32600
H1506       H  0.70532434  0.55828331  0.98900821     0.35300
C1507       C  0.49091654  0.74073777  0.01254875     0.20900
C1508       C  0.48958310  0.75643343  0.03656702    -0.38900
C1509       C  0.49043641  0.74171553  0.06081466     0.19900
C1510       C  0.49260532  0.71356554  0.06107123     0.22600
C1511       C  0.49396467  0.69791607  0.03710330    -0.39400
C1512       C  0.49291449  0.71258034  0.01291367     0.21400
N1513       N  0.49012906  0.74969228  0.98687118    -0.32700
C1514       C  0.49144893  0.72701063  0.97087863    -0.10300
C1515       C  0.49323034  0.70351682  0.98637770    -0.29100
N1516       N  0.49274169  0.70438332  0.08662333    -0.45700
C1517       C  0.49060524  0.72681351  0.10280423    -0.05000
C1518       C  0.48915102  0.75050650  0.08747997    -0.22300
H1519       H  0.48780230  0.77842865  0.03639047     0.19500
H1520       H  0.49547361  0.67589793  0.03727185     0.18300
H1521       H  0.49454980  0.68261222  0.97916854     0.14500
H1522       H  0.48729803  0.77130240  0.09486434     0.14400
H1523       H  0.48859249  0.76990121  0.98061109     0.32600
H1524       H  0.49416164  0.68410206  0.09269097     0.35300
C1525       C  0.61031500  0.70918250  0.90501681     0.20900
C1526       C  0.62695823  0.69336126  0.92167421    -0.38900
C1527       C  0.64461600  0.67548646  0.90832138     0.19900
C1528       C  0.64581330  0.67359885  0.88031336     0.22600
C1529       C  0.62922223  0.68953939  0.86363908    -0.39400
C1530       C  0.61143139  0.70733514  0.87700649     0.21400
N1531       N  0.58771077  0.72211072  0.91279299    -0.32700
C1532       C  0.57397530  0.72817552  0.88978791    -0.10300
C1533       C  0.58848241  0.71975537  0.86703313    -0.29100
N1534       N  0.65884882  0.65079197  0.87267549    -0.45700
C1535       C  0.66528129  0.63759113  0.89579405    -0.05000
C1536       C  0.65728098  0.65279867  0.91841202    -0.22300
H1537       H  0.62412074  0.69272348  0.94341247     0.19500
H1538       H  0.62804004  0.68605310  0.84192877     0.18300
H1539       H  0.58086226  0.71822349  0.84640586     0.14500
H1540       H  0.65614771  0.64567585  0.93907409     0.14400
H1541       H  0.57999706  0.72280273  0.93247299     0.32600
H1542       H  0.65900954  0.64238903  0.85307859     0.35300
C1543       C  0.31059875  0.56178047  0.01689599     0.20900
C1544       C  0.29460671  0.56101979  0.04031913    -0.38900
C1545       C  0.30872393  0.56278998  0.06511093     0.19900
C1546       C  0.33667890  0.56520312  0.06651145     0.22600
C1547       C  0.35270981  0.56608215  0.04304234    -0.39400
C1548       C  0.33856084  0.56421156  0.01819582     0.21400
N1549       N  0.30198428  0.56022323  0.99097343    -0.32700
C1550       C  0.32456820  0.56166491  0.97554900    -0.10300
C1551       C  0.34781846  0.56414084  0.99179596    -0.29100
N1552       N  0.34519347  0.56574067  0.09253439    -0.45700
C1553       C  0.32249684  0.56357975  0.10777434    -0.05000
C1554       C  0.29935531  0.56184304  0.09137665    -0.22300
H1555       H  0.27275991  0.55893649  0.03931285     0.19500
H1556       H  0.37458503  0.56781791  0.04405392     0.18300
H1557       H  0.36863394  0.56575303  0.98517467     0.14500
H1558       H  0.27852563  0.55968438  0.09780922     0.14400
H1559       H  0.28193898  0.55833084  0.98417267     0.32600
H1560       H  0.36521348  0.56714822  0.09950432     0.35300
C1561       C  0.33593042  0.68169904  0.89775811     0.20900
C1562       C  0.35238481  0.70014611  0.91258668    -0.38900
C1563       C  0.37091726  0.71556428  0.89758750     0.19900
C1564       C  0.37285051  0.71297581  0.86968985     0.22600
C1565       C  0.35599403  0.69490048  0.85476576    -0.39400
C1566       C  0.33752778  0.67933605  0.86980921     0.21400
N1567       N  0.32296387  0.65995191  0.90797911    -0.32700
C1568       C  0.31672713  0.64318302  0.88671098    -0.10300
C1569       C  0.32465584  0.65517568  0.86246586    -0.29100
N1570       N  0.39631689  0.72398002  0.86112942    -0.45700
C1571       C  0.40977961  0.73309571  0.88362035    -0.05000
C1572       C  0.39413240  0.72877238  0.90662858    -0.22300
H1573       H  0.35309501  0.69999321  0.93453768     0.19500
H1574       H  0.35937466  0.69076475  0.83343433     0.18300
H1575       H  0.32593622  0.64506004  0.84286242     0.14500
H1576       H  0.40111896  0.73010188  0.92748569     0.14400
H1577       H  0.32275705  0.65457873  0.92841680     0.32600
H1578       H  0.40467586  0.72116592  0.84188885     0.35300
C1579       C  0.48910201  0.37632788  0.01888652     0.20900
C1580       C  0.48790390  0.36059336  0.04247862    -0.38900
C1581       C  0.48912188  0.37527246  0.06715451     0.19900
C1582       C  0.49130649  0.40345285  0.06821706     0.22600
C1583       C  0.49252956  0.41915673  0.04465861    -0.39400
C1584       C  0.49135038  0.40449973  0.02002899     0.21400
N1585       N  0.48816223  0.36736789  0.99295830    -0.32700
C1586       C  0.48979290  0.39003667  0.97755347    -0.10300
C1587       C  0.49183749  0.41354828  0.99370895    -0.29100
N1588       N  0.49175778  0.41256548  0.09406683    -0.45700
C1589       C  0.48985696  0.39004976  0.10962828    -0.05000
C1590       C  0.48822983  0.36638729  0.09358395    -0.22300
H1591       H  0.48606569  0.33857263  0.04168731     0.19500
H1592       H  0.49417029  0.44119209  0.04544409     0.18300
H1593       H  0.49337292  0.43445790  0.98706119     0.14500
H1594       H  0.48641475  0.34554250  0.10035613     0.14400
H1595       H  0.48638385  0.34714435  0.98616217     0.32600
H1596       H  0.49313287  0.43286290  0.10072175     0.35300
C1597       C  0.37138036  0.40601258  0.87405005     0.20900
C1598       C  0.35647149  0.42414713  0.85809676    -0.38900
C1599       C  0.33817427  0.44097715  0.87195107     0.19900
C1600       C  0.33483638  0.43977970  0.89976502     0.22600
C1601       C  0.34955330  0.42145644  0.91569274    -0.39400
C1602       C  0.36800630  0.40476902  0.90185929     0.21400
N1603       N  0.39451841  0.39373101  0.86674717    -0.32700
C1604       C  0.40650788  0.38534594  0.88996302    -0.10300
C1605       C  0.39012622  0.39126055  0.91217893    -0.29100
N1606       N  0.32205099  0.46216563  0.90892802    -0.45700
C1607       C  0.31768623  0.47806275  0.88707285    -0.05000
C1608       C  0.32690327  0.46511572  0.86357378    -0.22300
H1609       H  0.36117506  0.42725190  0.83693793     0.19500
H1610       H  0.34909307  0.42248385  0.93763525     0.18300
H1611       H  0.39613588  0.39069951  0.93333443     0.14500
H1612       H  0.32987276  0.47447274  0.84402947     0.14400
H1613       H  0.40390904  0.39543571  0.84790262     0.32600
H1614       H  0.32062182  0.46835354  0.92923285     0.35300
C1615       C  0.60792538  0.40330913  0.87869445     0.20900
C1616       C  0.62549764  0.41962369  0.86341036    -0.38900
C1617       C  0.64411474  0.43585276  0.87822497     0.19900
C1618       C  0.64522307  0.43572223  0.90629164     0.22600
C1619       C  0.62806517  0.41900321  0.92152263    -0.39400
C1620       C  0.60937914  0.40293278  0.90674082     0.21400
N1621       N  0.58432965  0.39224112  0.86995416    -0.32700
C1622       C  0.57044189  0.38524768  0.89247837    -0.10300
C1623       C  0.58575787  0.39108188  0.91571464    -0.29100
N1624       N  0.65871406  0.45781847  0.91576279    -0.45700
C1625       C  0.66579107  0.47253760  0.89382480    -0.05000
C1626       C  0.65777268  0.45894744  0.87002418    -0.22300
H1627       H  0.62259042  0.42209321  0.84179640     0.19500
H1628       H  0.62703170  0.42094322  0.94339292     0.18300
H1629       H  0.57848161  0.39141395  0.93638434     0.14500
H1630       H  0.65691870  0.46758284  0.84993875     0.14400
H1631       H  0.57637010  0.39350576  0.85031294     0.32600
H1632       H  0.65878613  0.46487339  0.93586735     0.35300
loop_ 
_geom_bond_atom_site_label_1 
_geom_bond_atom_site_label_2 
_geom_bond_distance 
_geom_bond_site_symmetry_2 
_ccdc_geom_bond_type 
In1           O3   2.243       .  S
In1           O4   2.175       .  S
In1          O12   2.209       .  S
In1           O6   2.226       .  S
In1           O8   2.222       .  S
In1           O9   2.178       .  S
In1          O10   2.201       .  S
In1          O13   2.241       .  S
C2            O8   1.274       .  A
C2           O10   1.275       .  A
C2          C325   1.518       .  S
O3           C11   1.277       .  A
O4           C11   1.268       .  A
C5           O12   1.272       .  A
C5            O6   1.273       .  A
C5         C1586   1.472       .  S
C7            O9   1.268       .  A
C7           O13   1.277       .  A
C7         C1622   1.463       .  S
C11        C1604   1.463       .  S
In14         O16   2.253       .  S
In14         O17   2.185       .  S
In14         O25   2.225       .  S
In14         O19   2.224       .  S
In14         O21   2.226       .  S
In14         O22   2.180       .  S
In14         O23   2.207       .  S
In14         O26   2.244       .  S
C15          O21   1.272       .  A
C15          O23   1.277       .  A
C15         C326   1.528       .  S
O16          C24   1.277       .  A
O17          C24   1.267       .  A
C18          O25   1.273       .  A
C18          O19   1.273       .  A
C18        C1550   1.476       .  S
C20          O22   1.269       .  A
C20          O26   1.277       .  A
C20        C1607   1.464       .  S
C24        C1568   1.468       .  S
In27         O29   2.241       .  S
In27         O30   2.176       .  S
In27         O38   2.207       .  S
In27         O32   2.226       .  S
In27         O34   2.243       .  S
In27         O35   2.178       .  S
In27         O36   2.192       .  S
In27         O39   2.251       .  S
C28          O34   1.273       .  A
C28          O36   1.276       .  A
C28         C334   1.527       .  S
O29          C37   1.278       .  A
O30          C37   1.268       .  A
C31          O38   1.273       .  A
C31          O32   1.274       .  A
C31        C1514   1.471       .  S
C33          O35   1.267       .  A
C33          O39   1.278       .  A
C33        C1571   1.466       .  S
C37        C1532   1.462       .  S
In40         O42   2.240       .  S
In40         O43   2.170       .  S
In40         O51   2.195       .  S
In40         O45   2.223       .  S
In40         O47   2.234       .  S
In40         O48   2.174       .  S
In40         O49   2.190       .  S
In40         O52   2.241       .  S
C41          O47   1.274       .  A
C41          O49   1.275       .  A
C41         C332   1.526       .  S
O42          C50   1.278       .  A
O43          C50   1.268       .  A
C44          O51   1.272       .  A
C44          O45   1.274       .  A
C44        C1499   1.467       .  S
C46          O48   1.268       .  A
C46          O52   1.278       .  A
C46        C1535   1.463       .  S
C50        C1625   1.461       .  S
In53         O55   2.247       .  S
In53         O56   2.180       .  S
In53         O64   2.206       .  S
In53         O58   2.219       .  S
In53         O60   2.216       .  S
In53         O61   2.190       .  S
In53         O62   2.211       .  S
In53         O65   2.250       .  S
C54          O60   1.273       .  A
C54          O62   1.276       .  A
C54         C328   1.518       .  S
O55          C63   1.278       .  A
O56          C63   1.269       .  A
C57          O64   1.273       .  A
C57          O58   1.274       .  A
C57        C1442   1.469       .  S
C59          O61   1.268       .  A
C59          O65   1.277       .  A
C59        C1460   1.468       .  S
C63        C1478   1.466       .  S
In66         O68   2.251       .  S
In66         O69   2.170       .  S
In66         O77   2.222       .  S
In66         O71   2.224       .  S
In66         O73   2.233       .  S
In66         O74   2.174       .  S
In66         O75   2.195       .  S
In66         O78   2.242       .  S
C67          O73   1.272       .  A
C67          O75   1.275       .  A
C67         C327   1.524       .  S
O68          C76   1.278       .  A
O69          C76   1.266       .  A
C70          O77   1.272       .  A
C70          O71   1.272       .  A
C70        C1406   1.472       .  S
C72          O74   1.267       .  A
C72          O78   1.277       .  A
C72        C1424   1.462       .  S
C76        C1463   1.464       .  S
In79         O81   2.238       .  S
In79         O82   2.182       .  S
In79         O90   2.195       .  S
In79         O84   2.230       .  S
In79         O86   2.228       .  S
In79         O87   2.181       .  S
In79         O88   2.180       .  S
In79         O91   2.248       .  S
C80          O86   1.274       .  A
C80          O88   1.276       .  A
C80         C333   1.523       .  S
O81          C89   1.278       .  A
O82          C89   1.269       .  A
C83          O90   1.272       .  A
C83          O84   1.275       .  A
C83        C1370   1.467       .  S
C85          O87   1.269       .  A
C85          O91   1.278       .  A
C85        C1388   1.468       .  S
C89        C1427   1.463       .  S
In92         O94   2.256       .  S
In92         O95   2.181       .  S
In92        O103   2.224       .  S
In92         O97   2.215       .  S
In92         O99   2.211       .  S
In92        O100   2.184       .  S
In92        O101   2.198       .  S
In92        O104   2.250       .  S
C93          O99   1.273       .  A
C93         O101   1.276       .  A
C93         C336   1.512       .  S
O94         C102   1.278       .  A
O95         C102   1.267       .  A
C96         O103   1.272       .  A
C96          O97   1.272       .  A
C96        C1352   1.472       .  S
C98         O100   1.268       .  A
C98         O104   1.277       .  A
C98        C1481   1.466       .  S
C102       C1391   1.468       .  S
In105       O107   2.249       .  S
In105       O108   2.174       .  S
In105       O116   2.220       .  S
In105       O110   2.217       .  S
In105       O112   2.212       .  S
In105       O113   2.179       .  S
In105       O114   2.208       .  S
In105       O117   2.246       .  S
C106        O112   1.274       .  A
C106        O114   1.276       .  A
C106        C331   1.520       .  S
O107        C115   1.278       .  A
O108        C115   1.268       .  A
C109        O116   1.273       .  A
C109        O110   1.272       .  A
C109       C1298   1.471       .  S
C111        O113   1.268       .  A
C111        O117   1.277       .  A
C111       C1316   1.464       .  S
C115       C1334   1.465       .  S
In118       O120   2.248       .  S
In118       O121   2.183       .  S
In118       O129   2.223       .  S
In118       O123   2.220       .  S
In118       O125   2.209       .  S
In118       O126   2.182       .  S
In118       O127   2.210       .  S
In118       O130   2.253       .  S
C119        O125   1.272       .  A
C119        O127   1.277       .  A
C119        C335   1.520       .  S
O120        C128   1.277       .  A
O121        C128   1.268       .  A
C122        O129   1.273       .  A
C122        O123   1.272       .  A
C122       C1262   1.473       .  S
C124        O126   1.268       .  A
C124        O130   1.277       .  A
C124       C1337   1.467       .  S
C128       C1280   1.467       .  S
In131       O133   2.244       .  S
In131       O134   2.182       .  S
In131       O142   2.234       .  S
In131       O136   2.213       .  S
In131       O138   2.226       .  S
In131       O139   2.191       .  S
In131       O140   2.214       .  S
In131       O143   2.251       .  S
C132        O138   1.271       .  A
C132        O140   1.277       .  A
C132        C330   1.522       .  S
O133        C141   1.276       .  A
O134        C141   1.269       .  A
C135        O142   1.274       .  A
C135        O136   1.272       .  A
C135       C1226   1.474       .  S
C137        O139   1.268       .  A
C137        O143   1.277       .  A
C137       C1247   1.469       .  S
C141       C1319   1.464       .  S
In144       O146   2.254       .  S
In144       O147   2.180       .  S
In144       O155   2.194       .  S
In144       O149   2.222       .  S
In144       O151   2.205       .  S
In144       O152   2.184       .  S
In144       O153   2.206       .  S
In144       O156   2.248       .  S
C145        O151   1.273       .  A
C145        O153   1.275       .  A
C145        C329   1.517       .  S
O146        C154   1.278       .  A
O147        C154   1.267       .  A
C148        O155   1.272       .  A
C148        O149   1.274       .  A
C148       C1208   1.465       .  S
C150        O152   1.268       .  A
C150        O156   1.277       .  A
C150       C1283   1.467       .  S
C154       C1244   1.467       .  S
In157       O159   2.243       .  S
In157       O160   2.178       .  S
In157       O168   2.223       .  S
In157       O162   2.223       .  S
In157       O164   2.223       .  S
In157       O165   2.185       .  S
In157       O166   2.217       .  S
In157       O169   2.248       .  S
C158        O164   1.273       .  A
C158        O166   1.276       .  A
C158        C320   1.522       .  S
O159        C167   1.277       .  A
O160        C167   1.269       .  A
C161        O168   1.274       .  A
C161        O162   1.273       .  A
C161       C1589   1.474       .  S
C163        O165   1.268       .  A
C163        O169   1.277       .  A
C163       C1172   1.467       .  S
C167       C1190   1.464       .  S
In170       O172   2.246       .  S
In170       O173   2.183       .  S
In170       O181   2.226       .  S
In170       O175   2.221       .  S
In170       O177   2.222       .  S
In170       O178   2.177       .  S
In170       O179   2.219       .  S
In170       O182   2.243       .  S
C171        O177   1.272       .  A
C171        O179   1.276       .  A
C171        C319   1.525       .  S
O172        C180   1.277       .  A
O173        C180   1.268       .  A
C174        O181   1.274       .  A
C174        O175   1.273       .  A
C174       C1553   1.476       .  S
C176        O178   1.268       .  A
C176        O182   1.277       .  A
C176       C1154   1.462       .  S
C180       C1175   1.466       .  S
In183       O185   2.227       .  S
In183       O186   2.178       .  S
In183       O194   2.220       .  S
In183       O188   2.217       .  S
In183       O190   2.221       .  S
In183       O191   2.183       .  S
In183       O192   2.214       .  S
In183       O195   2.237       .  S
C184        O190   1.272       .  A
C184        O192   1.277       .  A
C184        C314   1.519       .  S
O185        C193   1.276       .  A
O186        C193   1.270       .  A
C187        O194   1.274       .  A
C187        O188   1.273       .  A
C187       C1517   1.471       .  S
C189        O191   1.269       .  A
C189        O195   1.276       .  A
C189       C1139   1.462       .  S
C193       C1157   1.461       .  S
In196       O198   2.248       .  S
In196       O199   2.189       .  S
In196       O207   2.204       .  S
In196       O201   2.215       .  S
In196       O203   2.212       .  S
In196       O204   2.181       .  S
In196       O205   2.215       .  S
In196       O208   2.241       .  S
C197        O203   1.272       .  A
C197        O205   1.276       .  A
C197        C313   1.520       .  S
O198        C206   1.277       .  A
O199        C206   1.269       .  A
C200        O207   1.274       .  A
C200        O201   1.274       .  A
C200       C1496   1.468       .  S
C202        O204   1.269       .  A
C202        O208   1.277       .  A
C202       C1193   1.465       .  S
C206       C1136   1.467       .  S
In209       O211   2.239       .  S
In209       O212   2.177       .  S
In209       O220   2.198       .  S
In209       O214   2.216       .  S
In209       O216   2.204       .  S
In209       O217   2.176       .  S
In209       O218   2.198       .  S
In209       O221   2.244       .  S
C210        O216   1.274       .  A
C210        O218   1.276       .  A
C210        C318   1.517       .  S
O211        C219   1.277       .  A
O212        C219   1.268       .  A
C213        O220   1.272       .  A
C213        O214   1.272       .  A
C213       C1373   1.463       .  S
C215        O217   1.268       .  A
C215        O221   1.277       .  A
C215       C1100   1.464       .  S
C219       C1121   1.462       .  S
In222       O224   2.252       .  S
In222       O225   2.184       .  S
In222       O233   2.220       .  S
In222       O227   2.209       .  S
In222       O229   2.216       .  S
In222       O230   2.187       .  S
In222       O231   2.192       .  S
In222       O234   2.242       .  S
C223        O229   1.272       .  A
C223        O231   1.277       .  A
C223        C317   1.525       .  S
O224        C232   1.277       .  A
O225        C232   1.268       .  A
C226        O233   1.273       .  A
C226        O227   1.273       .  A
C226       C1355   1.470       .  S
C228        O230   1.269       .  A
C228        O234   1.277       .  A
C228       C1118   1.465       .  S
C232       C1082   1.467       .  S
In235       O237   2.242       .  S
In235       O238   2.184       .  S
In235       O246   2.216       .  S
In235       O240   2.222       .  S
In235       O242   2.235       .  S
In235       O243   2.179       .  S
In235       O244   2.197       .  S
In235       O247   2.244       .  S
C236        O242   1.273       .  A
C236        O244   1.277       .  A
C236        C322   1.528       .  S
O237        C245   1.277       .  A
O238        C245   1.269       .  A
C239        O246   1.273       .  A
C239        O240   1.274       .  A
C239       C1409   1.472       .  S
C241        O243   1.268       .  A
C241        O247   1.278       .  A
C241       C1067   1.465       .  S
C245       C1103   1.465       .  S
In248       O250   2.252       .  S
In248       O251   2.171       .  S
In248       O259   2.209       .  S
In248       O253   2.228       .  S
In248       O255   2.229       .  S
In248       O256   2.175       .  S
In248       O257   2.200       .  S
In248       O260   2.245       .  S
C249        O255   1.272       .  A
C249        O257   1.276       .  A
C249        C321   1.531       .  S
O250        C258   1.278       .  A
O251        C258   1.267       .  A
C252        O259   1.272       .  A
C252        O253   1.274       .  A
C252       C1445   1.472       .  S
C254        O256   1.267       .  A
C254        O260   1.278       .  A
C254       C1085   1.464       .  S
C258       C1064   1.465       .  S
In261       O263   2.238       .  S
In261       O264   2.179       .  S
In261       O272   2.195       .  S
In261       O266   2.212       .  S
In261       O268   2.220       .  S
In261       O269   2.181       .  S
In261       O270   2.198       .  S
In261       O273   2.237       .  S
C262        O268   1.275       .  A
C262        O270   1.276       .  A
C262        C323   1.519       .  S
O263        C271   1.277       .  A
O264        C271   1.270       .  A
C265        O272   1.273       .  A
C265        O266   1.275       .  A
C265       C1211   1.463       .  S
C267        O269   1.270       .  A
C267        O273   1.277       .  A
C267       C1028   1.463       .  S
C271       C1046   1.463       .  S
In274       O276   2.240       .  S
In274       O277   2.177       .  S
In274       O285   2.236       .  S
In274       O279   2.209       .  S
In274       O281   2.220       .  S
In274       O282   2.175       .  S
In274       O283   2.209       .  S
In274       O286   2.245       .  S
C275        O281   1.271       .  A
C275        O283   1.276       .  A
C275        C324   1.520       .  S
O276        C284   1.276       .  A
O277        C284   1.267       .  A
C278        O285   1.273       .  A
C278        O279   1.271       .  A
C278       C1229   1.473       .  S
C280        O282   1.267       .  A
C280        O286   1.276       .  A
C280       C1010   1.462       .  S
C284       C1031   1.462       .  S
In287       O289   2.252       .  S
In287       O290   2.179       .  S
In287       O298   2.218       .  S
In287       O292   2.222       .  S
In287       O294   2.218       .  S
In287       O295   2.182       .  S
In287       O296   2.216       .  S
In287       O299   2.250       .  S
C288        O294   1.272       .  A
C288        O296   1.276       .  A
C288        C316   1.522       .  S
O289        C297   1.277       .  A
O290        C297   1.268       .  A
C291        O298   1.273       .  A
C291        O292   1.273       .  A
C291       C1301   1.472       .  S
C293        O295   1.268       .  A
C293        O299   1.278       .  A
C293        C995   1.467       .  S
C297       C1013   1.465       .  S
In300       O302   2.248       .  S
In300       O303   2.182       .  S
In300       O311   2.210       .  S
In300       O305   2.219       .  S
In300       O307   2.213       .  S
In300       O308   2.170       .  S
In300       O309   2.202       .  S
In300       O312   2.238       .  S
C301        O307   1.272       .  A
C301        O309   1.276       .  A
C301        C315   1.516       .  S
O302        C310   1.277       .  A
O303        C310   1.268       .  A
C304        O311   1.273       .  A
C304        O305   1.274       .  A
C304       C1265   1.470       .  S
C306        O308   1.269       .  A
C306        O312   1.277       .  A
C306       C1049   1.460       .  S
C310        C992   1.466       .  S
C313        C941   1.537       .  S
C313        C956   1.534       .  S
C313        C974   1.532       .  S
C314        C905   1.526       .  S
C314        C920   1.537       .  S
C314        C977   1.522       .  S
C315        C848   1.529       .  S
C315        C866   1.530       .  S
C315        C884   1.528       .  S
C316        C815   1.530       .  S
C316        C833   1.534       .  S
C316        C887   1.523       .  S
C317        C758   1.539       .  S
C317        C776   1.526       .  S
C317        C794   1.532       .  S
C318        C725   1.530       .  S
C318        C740   1.526       .  S
C318        C797   1.537       .  S
C319        C689   1.532       .  S
C319        C704   1.531       .  S
C319        C923   1.534       .  S
C320        C668   1.527       .  S
C320        C707   1.532       .  S
C320        C959   1.535       .  S
C321        C650   1.537       .  S
C321        C671   1.529       .  S
C321        C779   1.542       .  S
C322        C632   1.531       .  S
C322        C653   1.535       .  S
C322        C743   1.544       .  S
C323        C614   1.531       .  S
C323        C686   1.529       .  S
C323        C869   1.533       .  S
C324        C617   1.532       .  S
C324        C635   1.534       .  S
C324        C830   1.531       .  S
C325        C581   1.538       .  S
C325        C596   1.529       .  S
C325        C722   1.532       .  S
C326        C560   1.523       .  S
C326        C578   1.532       .  S
C326        C812   1.537       .  S
C327        C524   1.526       .  S
C327        C542   1.523       .  S
C327        C851   1.534       .  S
C328        C509   1.537       .  S
C328        C527   1.534       .  S
C328        C902   1.539       .  S
C329        C470   1.526       .  S
C329        C488   1.530       .  S
C329        C938   1.528       .  S
C330        C452   1.530       .  S
C330        C473   1.526       .  S
C330        C761   1.531       .  S
C331        C416   1.530       .  S
C331        C434   1.533       .  S
C331        C455   1.534       .  S
C332        C401   1.537       .  S
C332        C437   1.529       .  S
C332        C599   1.544       .  S
C333        C362   1.529       .  S
C333        C383   1.539       .  S
C333        C545   1.531       .  S
C334        C380   1.532       .  S
C334        C398   1.545       .  S
C334        C563   1.538       .  S
C335        C344   1.526       .  S
C335        C419   1.529       .  S
C335        C491   1.526       .  S
C336        C347   1.522       .  S
C336        C365   1.524       .  S
C336        C506   1.531       .  S
C337        C342   1.383       .  A
C337        C338   1.404       .  A
C337        N343   1.343       .  A
C338        C339   1.403       .  A
C338        H349   1.082       .  S
C339        C348   1.379       .  A
C339        C340   1.382       .  A
C340        C341   1.403       .  A
C340        N346   1.341       .  A
C341        C342   1.402       .  A
C341        H350   1.082       .  S
C342        C345   1.376       .  A
N343        C344   1.360       .  A
N343        H353   1.044       .  S
C344        C345   1.400       .  A
C345        H351   1.083       .  S
N346        C347   1.359       .  A
N346        H354   1.045       .  S
C347        C348   1.400       .  A
C348        H352   1.081       .  S
C355        C360   1.382       .  A
C355        C356   1.402       .  A
C355        N361   1.341       .  A
C356        C357   1.401       .  A
C356        H367   1.082       .  S
C357        C366   1.374       .  A
C357        C358   1.384       .  A
C358        C359   1.400       .  A
C358        N364   1.340       .  A
C359        C360   1.398       .  A
C359        H368   1.082       .  S
C360        C363   1.374       .  A
N361        C362   1.361       .  A
N361        H371   1.041       .  S
C362        C363   1.398       .  A
C363        H369   1.082       .  S
N364        C365   1.356       .  A
N364        H372   1.045       .  S
C365        C366   1.400       .  A
C366        H370   1.078       .  S
C373        C378   1.381       .  A
C373        C374   1.411       .  A
C373        N379   1.347       .  A
C374        C375   1.409       .  A
C374        H385   1.082       .  S
C375        C384   1.386       .  A
C375        C376   1.381       .  A
C376        C377   1.403       .  A
C376        N382   1.340       .  A
C377        C378   1.401       .  A
C377        H386   1.083       .  S
C378        C381   1.377       .  A
N379        C380   1.361       .  A
N379        H389   1.045       .  S
C380        C381   1.402       .  A
C381        H387   1.081       .  S
N382        C383   1.362       .  A
N382        H390   1.043       .  S
C383        C384   1.404       .  A
C384        H388   1.082       .  S
C391        C396   1.379       .  A
C391        C392   1.401       .  A
C391        N397   1.338       .  A
C392        C393   1.399       .  A
C392        H403   1.083       .  S
C393        C402   1.371       .  A
C393        C394   1.379       .  A
C394        C395   1.406       .  A
C394        N400   1.344       .  A
C395        C396   1.405       .  A
C395        H404   1.082       .  S
C396        C399   1.379       .  A
N397        C398   1.364       .  A
N397        H407   1.041       .  S
C398        C399   1.405       .  A
C399        H405   1.079       .  S
N400        C401   1.361       .  A
N400        H408   1.042       .  S
C401        C402   1.405       .  A
C402        H406   1.078       .  S
C409        C414   1.383       .  A
C409        C410   1.400       .  A
C409        N415   1.341       .  A
C410        C411   1.398       .  A
C410        H421   1.083       .  S
C411        C420   1.370       .  A
C411        C412   1.382       .  A
C412        C413   1.406       .  A
C412        N418   1.346       .  A
C413        C414   1.406       .  A
C413        H422   1.082       .  S
C414        C417   1.380       .  A
N415        C416   1.358       .  A
N415        H425   1.042       .  S
C416        C417   1.402       .  A
C417        H423   1.082       .  S
N418        C419   1.360       .  A
N418        H426   1.045       .  S
C419        C420   1.399       .  A
C420        H424   1.078       .  S
C427        C432   1.382       .  A
C427        C428   1.401       .  A
C427        N433   1.342       .  A
C428        C429   1.400       .  A
C428        H439   1.082       .  S
C429        C438   1.375       .  A
C429        C430   1.381       .  A
C430        C431   1.409       .  A
C430        N436   1.347       .  A
C431        C432   1.409       .  A
C431        H440   1.082       .  S
C432        C435   1.383       .  A
N433        C434   1.358       .  A
N433        H443   1.043       .  S
C434        C435   1.405       .  A
C435        H441   1.083       .  S
N436        C437   1.361       .  A
N436        H444   1.045       .  S
C437        C438   1.400       .  A
C438        H442   1.081       .  S
C445        C450   1.382       .  A
C445        C446   1.407       .  A
C445        N451   1.345       .  A
C446        C447   1.406       .  A
C446        H457   1.081       .  S
C447        C456   1.380       .  A
C447        C448   1.382       .  A
C448        C449   1.400       .  A
C448        N454   1.339       .  A
C449        C450   1.399       .  A
C449        H458   1.083       .  S
C450        C453   1.372       .  A
N451        C452   1.360       .  A
N451        H461   1.044       .  S
C452        C453   1.401       .  A
C453        H459   1.081       .  S
N454        C455   1.361       .  A
N454        H462   1.043       .  S
C455        C456   1.403       .  A
C456        H460   1.081       .  S
C463        C468   1.383       .  A
C463        C464   1.403       .  A
C463        N469   1.343       .  A
C464        C465   1.402       .  A
C464        H475   1.082       .  S
C465        C474   1.376       .  A
C465        C466   1.384       .  A
C466        C467   1.400       .  A
C466        N472   1.339       .  A
C467        C468   1.398       .  A
C467        H476   1.083       .  S
C468        C471   1.372       .  A
N469        C470   1.358       .  A
N469        H479   1.045       .  S
C470        C471   1.400       .  A
C471        H477   1.079       .  S
N472        C473   1.358       .  A
N472        H480   1.042       .  S
C473        C474   1.400       .  A
C474        H478   1.082       .  S
C481        C486   1.382       .  A
C481        C482   1.398       .  A
C481        N487   1.339       .  A
C482        C483   1.397       .  A
C482        H493   1.083       .  S
C483        C492   1.369       .  A
C483        C484   1.381       .  A
C484        C485   1.406       .  A
C484        N490   1.345       .  A
C485        C486   1.406       .  A
C485        H494   1.080       .  S
C486        C489   1.379       .  A
N487        C488   1.359       .  A
N487        H497   1.043       .  S
C488        C489   1.402       .  A
C489        H495   1.079       .  S
N490        C491   1.360       .  A
N490        H498   1.044       .  S
C491        C492   1.399       .  A
C492        H496   1.081       .  S
C499        C504   1.381       .  A
C499        C500   1.410       .  A
C499        N505   1.348       .  A
C500        C501   1.410       .  A
C500        H511   1.081       .  S
C501        C510   1.386       .  A
C501        C502   1.380       .  A
C502        C503   1.396       .  A
C502        N508   1.334       .  A
C503        C504   1.393       .  A
C503        H512   1.083       .  S
C504        C507   1.366       .  A
N505        C506   1.362       .  A
N505        H515   1.044       .  S
C506        C507   1.399       .  A
C507        H513   1.082       .  S
N508        C509   1.360       .  A
N508        H516   1.044       .  S
C509        C510   1.406       .  A
C510        H514   1.078       .  S
C517        C522   1.382       .  A
C517        C518   1.399       .  A
C517        N523   1.340       .  A
C518        C519   1.399       .  A
C518        H529   1.082       .  S
C519        C528   1.370       .  A
C519        C520   1.383       .  A
C520        C521   1.402       .  A
C520        N526   1.342       .  A
C521        C522   1.401       .  A
C521        H530   1.082       .  S
C522        C525   1.373       .  A
N523        C524   1.357       .  A
N523        H533   1.045       .  S
C524        C525   1.402       .  A
C525        H531   1.079       .  S
N526        C527   1.360       .  A
N526        H534   1.042       .  S
C527        C528   1.401       .  A
C528        H532   1.083       .  S
C535        C540   1.382       .  A
C535        C536   1.393       .  A
C535        N541   1.333       .  A
C536        C537   1.392       .  A
C536        H547   1.083       .  S
C537        C546   1.363       .  A
C537        C538   1.381       .  A
C538        C539   1.413       .  A
C538        N544   1.351       .  A
C539        C540   1.412       .  A
C539        H548   1.082       .  S
C540        C543   1.388       .  A
N541        C542   1.355       .  A
N541        H551   1.045       .  S
C542        C543   1.406       .  A
C543        H549   1.082       .  S
N544        C545   1.364       .  A
N544        H552   1.043       .  S
C545        C546   1.397       .  A
C546        H550   1.082       .  S
C553        C558   1.383       .  A
C553        C554   1.407       .  A
C553        N559   1.344       .  A
C554        C555   1.406       .  A
C554        H565   1.082       .  S
C555        C564   1.382       .  A
C555        C556   1.379       .  A
C556        C557   1.398       .  A
C556        N562   1.335       .  A
C557        C558   1.396       .  A
C557        H566   1.083       .  S
C558        C561   1.370       .  A
N559        C560   1.360       .  A
N559        H569   1.045       .  S
C560        C561   1.398       .  A
C561        H567   1.080       .  S
N562        C563   1.361       .  A
N562        H570   1.041       .  S
C563        C564   1.405       .  A
C564        H568   1.078       .  S
C571        C576   1.380       .  A
C571        C572   1.399       .  A
C571        N577   1.336       .  A
C572        C573   1.397       .  A
C572        H583   1.082       .  S
C573        C582   1.369       .  A
C573        C574   1.380       .  A
C574        C575   1.408       .  A
C574        N580   1.345       .  A
C575        C576   1.406       .  A
C575        H584   1.082       .  S
C576        C579   1.382       .  A
N577        C578   1.359       .  A
N577        H587   1.045       .  S
C578        C579   1.406       .  A
C579        H585   1.080       .  S
N580        C581   1.364       .  A
N580        H588   1.039       .  S
C581        C582   1.401       .  A
C582        H586   1.083       .  S
C589        C594   1.383       .  A
C589        C590   1.401       .  A
C589        N595   1.341       .  A
C590        C591   1.401       .  A
C590        H601   1.083       .  S
C591        C600   1.371       .  A
C591        C592   1.379       .  A
C592        C593   1.403       .  A
C592        N598   1.343       .  A
C593        C594   1.402       .  A
C593        H602   1.082       .  S
C594        C597   1.376       .  A
N595        C596   1.359       .  A
N595        H605   1.042       .  S
C596        C597   1.399       .  A
C597        H603   1.082       .  S
N598        C599   1.361       .  A
N598        H606   1.040       .  S
C599        C600   1.406       .  A
C600        H604   1.079       .  S
C607        C612   1.383       .  A
C607        C608   1.400       .  A
C607        N613   1.341       .  A
C608        C609   1.399       .  A
C608        H619   1.083       .  S
C609        C618   1.372       .  A
C609        C610   1.382       .  A
C610        C611   1.406       .  A
C610        N616   1.346       .  A
C611        C612   1.406       .  A
C611        H620   1.082       .  S
C612        C615   1.380       .  A
N613        C614   1.359       .  A
N613        H623   1.042       .  S
C614        C615   1.402       .  A
C615        H621   1.082       .  S
N616        C617   1.359       .  A
N616        H624   1.045       .  S
C617        C618   1.401       .  A
C618        H622   1.079       .  S
C625        C630   1.381       .  A
C625        C626   1.409       .  A
C625        N631   1.347       .  A
C626        C627   1.408       .  A
C626        H637   1.082       .  S
C627        C636   1.383       .  A
C627        C628   1.382       .  A
C628        C629   1.404       .  A
C628        N634   1.344       .  A
C629        C630   1.403       .  A
C629        H638   1.082       .  S
C630        C633   1.378       .  A
N631        C632   1.361       .  A
N631        H641   1.045       .  S
C632        C633   1.402       .  A
C633        H639   1.081       .  S
N634        C635   1.360       .  A
N634        H642   1.043       .  S
C635        C636   1.403       .  A
C636        H640   1.082       .  S
C643        C648   1.379       .  A
C643        C644   1.407       .  A
C643        N649   1.347       .  A
C644        C645   1.407       .  A
C644        H655   1.082       .  S
C645        C654   1.379       .  A
C645        C646   1.380       .  A
C646        C647   1.396       .  A
C646        N652   1.336       .  A
C647        C648   1.395       .  A
C647        H656   1.083       .  S
C648        C651   1.365       .  A
N649        C650   1.363       .  A
N649        H659   1.036       .  S
C650        C651   1.402       .  A
C651        H657   1.077       .  S
N652        C653   1.360       .  A
N652        H660   1.041       .  S
C653        C654   1.404       .  A
C654        H658   1.079       .  S
C661        C666   1.382       .  A
C661        C662   1.405       .  A
C661        N667   1.343       .  A
C662        C663   1.404       .  A
C662        H673   1.082       .  S
C663        C672   1.379       .  A
C663        C664   1.382       .  A
C664        C665   1.405       .  A
C664        N670   1.344       .  A
C665        C666   1.403       .  A
C665        H674   1.082       .  S
C666        C669   1.379       .  A
N667        C668   1.359       .  A
N667        H677   1.045       .  S
C668        C669   1.402       .  A
C669        H675   1.081       .  S
N670        C671   1.360       .  A
N670        H678   1.043       .  S
C671        C672   1.401       .  A
C672        H676   1.083       .  S
C679        C684   1.382       .  A
C679        C680   1.404       .  A
C679        N685   1.343       .  A
C680        C681   1.403       .  A
C680        H691   1.082       .  S
C681        C690   1.376       .  A
C681        C682   1.382       .  A
C682        C683   1.407       .  A
C682        N688   1.348       .  A
C683        C684   1.407       .  A
C683        H692   1.082       .  S
C684        C687   1.381       .  A
N685        C686   1.358       .  A
N685        H695   1.045       .  S
C686        C687   1.403       .  A
C687        H693   1.081       .  S
N688        C689   1.361       .  A
N688        H696   1.044       .  S
C689        C690   1.401       .  A
C690        H694   1.083       .  S
C697        C702   1.382       .  A
C697        C698   1.407       .  A
C697        N703   1.346       .  A
C698        C699   1.406       .  A
C698        H709   1.082       .  S
C699        C708   1.380       .  A
C699        C700   1.383       .  A
C700        C701   1.398       .  A
C700        N706   1.338       .  A
C701        C702   1.397       .  A
C701        H710   1.083       .  S
C702        C705   1.370       .  A
N703        C704   1.360       .  A
N703        H713   1.045       .  S
C704        C705   1.400       .  A
C705        H711   1.079       .  S
N706        C707   1.357       .  A
N706        H714   1.042       .  S
C707        C708   1.403       .  A
C708        H712   1.083       .  S
C715        C720   1.380       .  A
C715        C716   1.401       .  A
C715        N721   1.338       .  A
C716        C717   1.399       .  A
C716        H727   1.082       .  S
C717        C726   1.373       .  A
C717        C718   1.379       .  A
C718        C719   1.405       .  A
C718        N724   1.342       .  A
C719        C720   1.404       .  A
C719        H728   1.082       .  S
C720        C723   1.378       .  A
N721        C722   1.361       .  A
N721        H731   1.044       .  S
C722        C723   1.403       .  A
C723        H729   1.081       .  S
N724        C725   1.363       .  A
N724        H732   1.045       .  S
C725        C726   1.399       .  A
C726        H730   1.080       .  S
C733        C738   1.382       .  A
C733        C734   1.405       .  A
C733        N739   1.343       .  A
C734        C735   1.404       .  A
C734        H745   1.082       .  S
C735        C744   1.378       .  A
C735        C736   1.379       .  A
C736        C737   1.400       .  A
C736        N742   1.337       .  A
C737        C738   1.398       .  A
C737        H746   1.083       .  S
C738        C741   1.371       .  A
N739        C740   1.358       .  A
N739        H749   1.044       .  S
C740        C741   1.399       .  A
C741        H747   1.078       .  S
N742        C743   1.363       .  A
N742        H750   1.041       .  S
C743        C744   1.405       .  A
C744        H748   1.077       .  S
C751        C756   1.380       .  A
C751        C752   1.406       .  A
C751        N757   1.346       .  A
C752        C753   1.405       .  A
C752        H763   1.082       .  S
C753        C762   1.378       .  A
C753        C754   1.382       .  A
C754        C755   1.406       .  A
C754        N760   1.346       .  A
C755        C756   1.406       .  A
C755        H764   1.082       .  S
C756        C759   1.378       .  A
N757        C758   1.361       .  A
N757        H767   1.042       .  S
C758        C759   1.405       .  A
C759        H765   1.082       .  S
N760        C761   1.359       .  A
N760        H768   1.045       .  S
C761        C762   1.404       .  A
C762        H766   1.082       .  S
C769        C774   1.383       .  A
C769        C770   1.400       .  A
C769        N775   1.339       .  A
C770        C771   1.399       .  A
C770        H781   1.083       .  S
C771        C780   1.370       .  A
C771        C772   1.379       .  A
C772        C773   1.406       .  A
C772        N778   1.345       .  A
C773        C774   1.405       .  A
C773        H782   1.082       .  S
C774        C777   1.380       .  A
N775        C776   1.359       .  A
N775        H785   1.041       .  S
C776        C777   1.400       .  A
C777        H783   1.082       .  S
N778        C779   1.363       .  A
N778        H786   1.038       .  S
C779        C780   1.405       .  A
C780        H784   1.080       .  S
C787        C792   1.380       .  A
C787        C788   1.399       .  A
C787        N793   1.336       .  A
C788        C789   1.396       .  A
C788        H799   1.082       .  S
C789        C798   1.368       .  A
C789        C790   1.379       .  A
C790        C791   1.409       .  A
C790        N796   1.345       .  A
C791        C792   1.407       .  A
C791        H800   1.082       .  S
C792        C795   1.384       .  A
N793        C794   1.359       .  A
N793        H803   1.045       .  S
C794        C795   1.406       .  A
C795        H801   1.080       .  S
N796        C797   1.365       .  A
N796        H804   1.039       .  S
C797        C798   1.400       .  A
C798        H802   1.083       .  S
C805        C810   1.380       .  A
C805        C806   1.404       .  A
C805        N811   1.344       .  A
C806        C807   1.403       .  A
C806        H817   1.082       .  S
C807        C816   1.378       .  A
C807        C808   1.382       .  A
C808        C809   1.406       .  A
C808        N814   1.344       .  A
C809        C810   1.405       .  A
C809        H818   1.082       .  S
C810        C813   1.378       .  A
N811        C812   1.361       .  A
N811        H821   1.041       .  S
C812        C813   1.404       .  A
C813        H819   1.082       .  S
N814        C815   1.360       .  A
N814        H822   1.045       .  S
C815        C816   1.401       .  A
C816        H820   1.082       .  S
C823        C828   1.381       .  A
C823        C824   1.406       .  A
C823        N829   1.344       .  A
C824        C825   1.405       .  A
C824        H835   1.081       .  S
C825        C834   1.381       .  A
C825        C826   1.381       .  A
C826        C827   1.402       .  A
C826        N832   1.340       .  A
C827        C828   1.400       .  A
C827        H836   1.083       .  S
C828        C831   1.374       .  A
N829        C830   1.361       .  A
N829        H839   1.045       .  S
C830        C831   1.402       .  A
C831        H837   1.081       .  S
N832        C833   1.361       .  A
N832        H840   1.043       .  S
C833        C834   1.401       .  A
C834        H838   1.080       .  S
C841        C846   1.382       .  A
C841        C842   1.403       .  A
C841        N847   1.344       .  A
C842        C843   1.403       .  A
C842        H853   1.083       .  S
C843        C852   1.374       .  A
C843        C844   1.381       .  A
C844        C845   1.406       .  A
C844        N850   1.347       .  A
C845        C846   1.406       .  A
C845        H854   1.082       .  S
C846        C849   1.378       .  A
N847        C848   1.360       .  A
N847        H857   1.043       .  S
C848        C849   1.402       .  A
C849        H855   1.082       .  S
N850        C851   1.360       .  A
N850        H858   1.045       .  S
C851        C852   1.404       .  A
C852        H856   1.081       .  S
C859        C864   1.381       .  A
C859        C860   1.409       .  A
C859        N865   1.347       .  A
C860        C861   1.409       .  A
C860        H871   1.080       .  S
C861        C870   1.383       .  A
C861        C862   1.382       .  A
C862        C863   1.398       .  A
C862        N868   1.338       .  A
C863        C864   1.396       .  A
C863        H872   1.083       .  S
C864        C867   1.370       .  A
N865        C866   1.362       .  A
N865        H875   1.044       .  S
C866        C867   1.400       .  A
C867        H873   1.081       .  S
N868        C869   1.359       .  A
N868        H876   1.043       .  S
C869        C870   1.404       .  A
C870        H874   1.081       .  S
C877        C882   1.382       .  A
C877        C878   1.402       .  A
C877        N883   1.344       .  A
C878        C879   1.402       .  A
C878        H889   1.082       .  S
C879        C888   1.373       .  A
C879        C880   1.384       .  A
C880        C881   1.399       .  A
C880        N886   1.342       .  A
C881        C882   1.399       .  A
C881        H890   1.083       .  S
C882        C885   1.369       .  A
N883        C884   1.358       .  A
N883        H893   1.045       .  S
C884        C885   1.400       .  A
C885        H891   1.078       .  S
N886        C887   1.358       .  A
N886        H894   1.043       .  S
C887        C888   1.399       .  A
C888        H892   1.082       .  S
C895        C900   1.380       .  A
C895        C896   1.402       .  A
C895        N901   1.339       .  A
C896        C897   1.399       .  A
C896        H907   1.082       .  S
C897        C906   1.375       .  A
C897        C898   1.381       .  A
C898        C899   1.407       .  A
C898        N904   1.343       .  A
C899        C900   1.405       .  A
C899        H908   1.082       .  S
C900        C903   1.381       .  A
N901        C902   1.362       .  A
N901        H911   1.042       .  S
C902        C903   1.404       .  A
C903        H909   1.081       .  S
N904        C905   1.360       .  A
N904        H912   1.045       .  S
C905        C906   1.400       .  A
C906        H910   1.081       .  S
C913        C918   1.381       .  A
C913        C914   1.409       .  A
C913        N919   1.348       .  A
C914        C915   1.409       .  A
C914        H925   1.081       .  S
C915        C924   1.384       .  A
C915        C916   1.382       .  A
C916        C917   1.401       .  A
C916        N922   1.341       .  A
C917        C918   1.400       .  A
C917        H926   1.083       .  S
C918        C921   1.372       .  A
N919        C920   1.361       .  A
N919        H929   1.044       .  S
C920        C921   1.403       .  A
C921        H927   1.081       .  S
N922        C923   1.360       .  A
N922        H930   1.043       .  S
C923        C924   1.404       .  A
C924        H928   1.082       .  S
C931        C936   1.382       .  A
C931        C932   1.398       .  A
C931        N937   1.340       .  A
C932        C933   1.399       .  A
C932        H943   1.083       .  S
C933        C942   1.367       .  A
C933        C934   1.379       .  A
C934        C935   1.407       .  A
C934        N940   1.347       .  A
C935        C936   1.407       .  A
C935        H944   1.082       .  S
C936        C939   1.379       .  A
N937        C938   1.358       .  A
N937        H947   1.043       .  S
C938        C939   1.402       .  A
C939        H945   1.082       .  S
N940        C941   1.362       .  A
N940        H948   1.044       .  S
C941        C942   1.405       .  A
C942        H946   1.079       .  S
C949        C954   1.381       .  A
C949        C950   1.397       .  A
C949        N955   1.336       .  A
C950        C951   1.395       .  A
C950        H961   1.083       .  S
C951        C960   1.367       .  A
C951        C952   1.380       .  A
C952        C953   1.411       .  A
C952        N958   1.349       .  A
C953        C954   1.411       .  A
C953        H962   1.082       .  S
C954        C957   1.386       .  A
N955        C956   1.360       .  A
N955        H965   1.043       .  S
C956        C957   1.405       .  A
C957        H963   1.080       .  S
N958        C959   1.363       .  A
N958        H966   1.044       .  S
C959        C960   1.400       .  A
C960        H964   1.081       .  S
C967        C972   1.381       .  A
C967        C968   1.400       .  A
C967        N973   1.339       .  A
C968        C969   1.399       .  A
C968        H979   1.083       .  S
C969        C978   1.372       .  A
C969        C970   1.385       .  A
C970        C971   1.398       .  A
C970        N976   1.338       .  A
C971        C972   1.396       .  A
C971        H980   1.083       .  S
C972        C975   1.369       .  A
N973        C974   1.359       .  A
N973        H983   1.045       .  S
C974        C975   1.399       .  A
C975        H981   1.077       .  S
N976        C977   1.357       .  A
N976        H984   1.042       .  S
C977        C978   1.397       .  A
C978        H982   1.083       .  S
C985        C990   1.384       .  A
C985        C986   1.402       .  A
C985        N991   1.342       .  A
C986        C987   1.401       .  A
C986        H997   1.083       .  S
C987        C996   1.377       .  A
C987        C988   1.384       .  A
C988        C989   1.408       .  A
C988        N994   1.347       .  A
C989        C990   1.406       .  A
C989        H998   1.083       .  S
C990        C993   1.383       .  A
N991        C992   1.354       .  A
N991       H1001   1.045       .  S
C992        C993   1.396       .  A
C993        H999   1.083       .  S
N994        C995   1.357       .  A
N994       H1002   1.045       .  S
C995        C996   1.393       .  A
C996       H1000   1.083       .  S
C1003      C1008   1.384       .  A
C1003      C1004   1.405       .  A
C1003      N1009   1.345       .  A
C1004      C1005   1.404       .  A
C1004      H1015   1.082       .  S
C1005      C1014   1.380       .  A
C1005      C1006   1.384       .  A
C1006      C1007   1.403       .  A
C1006      N1012   1.343       .  A
C1007      C1008   1.401       .  A
C1007      H1016   1.083       .  S
C1008      C1011   1.377       .  A
N1009      C1010   1.356       .  A
N1009      H1019   1.045       .  S
C1010      C1011   1.393       .  A
C1011      H1017   1.083       .  S
N1012      C1013   1.355       .  A
N1012      H1020   1.045       .  S
C1013      C1014   1.396       .  A
C1014      H1018   1.081       .  S
C1021      C1026   1.385       .  A
C1021      C1022   1.401       .  A
C1021      N1027   1.342       .  A
C1022      C1023   1.400       .  A
C1022      H1033   1.083       .  S
C1023      C1032   1.374       .  A
C1023      C1024   1.385       .  A
C1024      C1025   1.405       .  A
C1024      N1030   1.346       .  A
C1025      C1026   1.405       .  A
C1025      H1034   1.083       .  S
C1026      C1029   1.381       .  A
N1027      C1028   1.354       .  A
N1027      H1037   1.045       .  S
C1028      C1029   1.394       .  A
C1029      H1035   1.083       .  S
N1030      C1031   1.356       .  A
N1030      H1038   1.045       .  S
C1031      C1032   1.392       .  A
C1032      H1036   1.083       .  S
C1039      C1044   1.384       .  A
C1039      C1040   1.404       .  A
C1039      N1045   1.344       .  A
C1040      C1041   1.403       .  A
C1040      H1051   1.082       .  S
C1041      C1050   1.379       .  A
C1041      C1042   1.385       .  A
C1042      C1043   1.402       .  A
C1042      N1048   1.342       .  A
C1043      C1044   1.401       .  A
C1043      H1052   1.083       .  S
C1044      C1047   1.377       .  A
N1045      C1046   1.355       .  A
N1045      H1055   1.044       .  S
C1046      C1047   1.393       .  A
C1047      H1053   1.083       .  S
N1048      C1049   1.354       .  A
N1048      H1056   1.045       .  S
C1049      C1050   1.394       .  A
C1050      H1054   1.082       .  S
C1057      C1062   1.384       .  A
C1057      C1058   1.406       .  A
C1057      N1063   1.346       .  A
C1058      C1059   1.405       .  A
C1058      H1069   1.083       .  S
C1059      C1068   1.380       .  A
C1059      C1060   1.384       .  A
C1060      C1061   1.403       .  A
C1060      N1066   1.344       .  A
C1061      C1062   1.403       .  A
C1061      H1070   1.083       .  S
C1062      C1065   1.377       .  A
N1063      C1064   1.357       .  A
N1063      H1073   1.045       .  S
C1064      C1065   1.394       .  A
C1065      H1071   1.083       .  S
N1066      C1067   1.355       .  A
N1066      H1074   1.045       .  S
C1067      C1068   1.395       .  A
C1068      H1072   1.083       .  S
C1075      C1080   1.384       .  A
C1075      C1076   1.403       .  A
C1075      N1081   1.343       .  A
C1076      C1077   1.402       .  A
C1076      H1087   1.083       .  S
C1077      C1086   1.378       .  A
C1077      C1078   1.384       .  A
C1078      C1079   1.406       .  A
C1078      N1084   1.345       .  A
C1079      C1080   1.405       .  A
C1079      H1088   1.083       .  S
C1080      C1083   1.381       .  A
N1081      C1082   1.355       .  A
N1081      H1091   1.045       .  S
C1082      C1083   1.397       .  A
C1083      H1089   1.083       .  S
N1084      C1085   1.356       .  A
N1084      H1092   1.045       .  S
C1085      C1086   1.394       .  A
C1086      H1090   1.083       .  S
C1093      C1098   1.384       .  A
C1093      C1094   1.402       .  A
C1093      N1099   1.343       .  A
C1094      C1095   1.401       .  A
C1094      H1105   1.083       .  S
C1095      C1104   1.378       .  A
C1095      C1096   1.384       .  A
C1096      C1097   1.406       .  A
C1096      N1102   1.345       .  A
C1097      C1098   1.405       .  A
C1097      H1106   1.083       .  S
C1098      C1101   1.380       .  A
N1099      C1100   1.354       .  A
N1099      H1109   1.045       .  S
C1100      C1101   1.396       .  A
C1101      H1107   1.083       .  S
N1102      C1103   1.356       .  A
N1102      H1110   1.045       .  S
C1103      C1104   1.393       .  A
C1104      H1108   1.083       .  S
C1111      C1116   1.384       .  A
C1111      C1112   1.403       .  A
C1111      N1117   1.345       .  A
C1112      C1113   1.402       .  A
C1112      H1123   1.083       .  S
C1113      C1122   1.377       .  A
C1113      C1114   1.385       .  A
C1114      C1115   1.405       .  A
C1114      N1120   1.345       .  A
C1115      C1116   1.404       .  A
C1115      H1124   1.083       .  S
C1116      C1119   1.379       .  A
N1117      C1118   1.355       .  A
N1117      H1127   1.045       .  S
C1118      C1119   1.395       .  A
C1119      H1125   1.083       .  S
N1120      C1121   1.356       .  A
N1120      H1128   1.045       .  S
C1121      C1122   1.393       .  A
C1122      H1126   1.083       .  S
C1129      C1134   1.385       .  A
C1129      C1130   1.402       .  A
C1129      N1135   1.343       .  A
C1130      C1131   1.401       .  A
C1130      H1141   1.083       .  S
C1131      C1140   1.376       .  A
C1131      C1132   1.385       .  A
C1132      C1133   1.405       .  A
C1132      N1138   1.345       .  A
C1133      C1134   1.404       .  A
C1133      H1142   1.083       .  S
C1134      C1137   1.381       .  A
N1135      C1136   1.354       .  A
N1135      H1145   1.045       .  S
C1136      C1137   1.395       .  A
C1137      H1143   1.082       .  S
N1138      C1139   1.355       .  A
N1138      H1146   1.045       .  S
C1139      C1140   1.392       .  A
C1140      H1144   1.083       .  S
C1147      C1152   1.385       .  A
C1147      C1148   1.402       .  A
C1147      N1153   1.343       .  A
C1148      C1149   1.400       .  A
C1148      H1159   1.083       .  S
C1149      C1158   1.376       .  A
C1149      C1150   1.385       .  A
C1150      C1151   1.404       .  A
C1150      N1156   1.345       .  A
C1151      C1152   1.403       .  A
C1151      H1160   1.082       .  S
C1152      C1155   1.379       .  A
N1153      C1154   1.354       .  A
N1153      H1163   1.045       .  S
C1154      C1155   1.394       .  A
C1155      H1161   1.082       .  S
N1156      C1157   1.355       .  A
N1156      H1164   1.045       .  S
C1157      C1158   1.391       .  A
C1158      H1162   1.083       .  S
C1165      C1170   1.384       .  A
C1165      C1166   1.405       .  A
C1165      N1171   1.346       .  A
C1166      C1167   1.405       .  A
C1166      H1177   1.083       .  S
C1167      C1176   1.381       .  A
C1167      C1168   1.385       .  A
C1168      C1169   1.403       .  A
C1168      N1174   1.344       .  A
C1169      C1170   1.402       .  A
C1169      H1178   1.083       .  S
C1170      C1173   1.378       .  A
N1171      C1172   1.356       .  A
N1171      H1181   1.045       .  S
C1172      C1173   1.393       .  A
C1173      H1179   1.083       .  S
N1174      C1175   1.355       .  A
N1174      H1182   1.045       .  S
C1175      C1176   1.395       .  A
C1176      H1180   1.083       .  S
C1183      C1188   1.385       .  A
C1183      C1184   1.403       .  A
C1183      N1189   1.343       .  A
C1184      C1185   1.401       .  A
C1184      H1195   1.083       .  S
C1185      C1194   1.377       .  A
C1185      C1186   1.385       .  A
C1186      C1187   1.405       .  A
C1186      N1192   1.346       .  A
C1187      C1188   1.405       .  A
C1187      H1196   1.082       .  S
C1188      C1191   1.381       .  A
N1189      C1190   1.354       .  A
N1189      H1199   1.045       .  S
C1190      C1191   1.395       .  A
C1191      H1197   1.082       .  S
N1192      C1193   1.355       .  A
N1192      H1200   1.045       .  S
C1193      C1194   1.393       .  A
C1194      H1198   1.083       .  S
C1201      C1206   1.385       .  A
C1201      C1202   1.404       .  A
C1201      N1207   1.345       .  A
C1202      C1203   1.404   1_655  A
C1202      H1213   1.082       .  S
C1203      C1212   1.379       .  A
C1203      C1204   1.385       .  A
C1204      C1205   1.399   1_455  A
C1204      N1210   1.340       .  A
C1205      C1206   1.398       .  A
C1205      H1214   1.082       .  S
C1206      C1209   1.372       .  A
N1207      C1208   1.356       .  A
N1207      H1217   1.045       .  S
C1208      C1209   1.392       .  A
C1209      H1215   1.082       .  S
N1210      C1211   1.353       .  A
N1210      H1218   1.045       .  S
C1211      C1212   1.394       .  A
C1212      H1216   1.082       .  S
C1219      C1224   1.385       .  A
C1219      C1220   1.402       .  A
C1219      N1225   1.342       .  A
C1220      C1221   1.401   1_655  A
C1220      H1231   1.082       .  S
C1221      C1230   1.375       .  A
C1221      C1222   1.384       .  A
C1222      C1223   1.408   1_455  A
C1222      N1228   1.348       .  A
C1223      C1224   1.408       .  A
C1223      H1232   1.082       .  S
C1224      C1227   1.384       .  A
N1225      C1226   1.354       .  A
N1225      H1235   1.045       .  S
C1226      C1227   1.398       .  A
C1227      H1233   1.082       .  S
N1228      C1229   1.357       .  A
N1228      H1236   1.045       .  S
C1229      C1230   1.393       .  A
C1230      H1234   1.082       .  S
C1237      C1242   1.384       .  A
C1237      C1238   1.406       .  A
C1237      N1243   1.347       .  A
C1238      C1239   1.406       .  A
C1238      H1249   1.083       .  S
C1239      C1248   1.382       .  A
C1239      C1240   1.384       .  A
C1240      C1241   1.403       .  A
C1240      N1246   1.344       .  A
C1241      C1242   1.403       .  A
C1241      H1250   1.083       .  S
C1242      C1245   1.377       .  A
N1243      C1244   1.357       .  A
N1243      H1253   1.045       .  S
C1244      C1245   1.394       .  A
C1245      H1251   1.083       .  S
N1246      C1247   1.355       .  A
N1246      H1254   1.045       .  S
C1247      C1248   1.395       .  A
C1248      H1252   1.083       .  S
C1255      C1260   1.384       .  A
C1255      C1256   1.405       .  A
C1255      N1261   1.344       .  A
C1256      C1257   1.404   1_655  A
C1256      H1267   1.082       .  S
C1257      C1266   1.380       .  A
C1257      C1258   1.385       .  A
C1258      C1259   1.404   1_455  A
C1258      N1264   1.343       .  A
C1259      C1260   1.403       .  A
C1259      H1268   1.082       .  S
C1260      C1263   1.379       .  A
N1261      C1262   1.356       .  A
N1261      H1271   1.045       .  S
C1262      C1263   1.395       .  A
C1263      H1269   1.082       .  S
N1264      C1265   1.355       .  A
N1264      H1272   1.045       .  S
C1265      C1266   1.395       .  A
C1266      H1270   1.082       .  S
C1273      C1278   1.384       .  A
C1273      C1274   1.406       .  A
C1273      N1279   1.346       .  A
C1274      C1275   1.405       .  A
C1274      H1285   1.082       .  S
C1275      C1284   1.381       .  A
C1275      C1276   1.384       .  A
C1276      C1277   1.403       .  A
C1276      N1282   1.344       .  A
C1277      C1278   1.402       .  A
C1277      H1286   1.083       .  S
C1278      C1281   1.377       .  A
N1279      C1280   1.357       .  A
N1279      H1289   1.045       .  S
C1280      C1281   1.392       .  A
C1281      H1287   1.083       .  S
N1282      C1283   1.355       .  A
N1282      H1290   1.045       .  S
C1283      C1284   1.395       .  A
C1284      H1288   1.081       .  S
C1291      C1296   1.385       .  A
C1291      C1292   1.404       .  A
C1291      N1297   1.343       .  A
C1292      C1293   1.403   1_655  A
C1292      H1303   1.082       .  S
C1293      C1302   1.379       .  A
C1293      C1294   1.384       .  A
C1294      C1295   1.405   1_455  A
C1294      N1300   1.344       .  A
C1295      C1296   1.404       .  A
C1295      H1304   1.082       .  S
C1296      C1299   1.380       .  A
N1297      C1298   1.355       .  A
N1297      H1307   1.045       .  S
C1298      C1299   1.395       .  A
C1299      H1305   1.082       .  S
N1300      C1301   1.356       .  A
N1300      H1308   1.045       .  S
C1301      C1302   1.395       .  A
C1302      H1306   1.082       .  S
C1309      C1314   1.385       .  A
C1309      C1310   1.403       .  A
C1309      N1315   1.344       .  A
C1310      C1311   1.402       .  A
C1310      H1321   1.083       .  S
C1311      C1320   1.377       .  A
C1311      C1312   1.385       .  A
C1312      C1313   1.404       .  A
C1312      N1318   1.345       .  A
C1313      C1314   1.403       .  A
C1313      H1322   1.082       .  S
C1314      C1317   1.379       .  A
N1315      C1316   1.355       .  A
N1315      H1325   1.045       .  S
C1316      C1317   1.394       .  A
C1317      H1323   1.082       .  S
N1318      C1319   1.356       .  A
N1318      H1326   1.045       .  S
C1319      C1320   1.393       .  A
C1320      H1324   1.083       .  S
C1327      C1332   1.384       .  A
C1327      C1328   1.401       .  A
C1327      N1333   1.342       .  A
C1328      C1329   1.400       .  A
C1328      H1339   1.083       .  S
C1329      C1338   1.375       .  A
C1329      C1330   1.384       .  A
C1330      C1331   1.408       .  A
C1330      N1336   1.348       .  A
C1331      C1332   1.407       .  A
C1331      H1340   1.083       .  S
C1332      C1335   1.384       .  A
N1333      C1334   1.353       .  A
N1333      H1343   1.045       .  S
C1334      C1335   1.398       .  A
C1335      H1341   1.083       .  S
N1336      C1337   1.357       .  A
N1336      H1344   1.045       .  S
C1337      C1338   1.393       .  A
C1338      H1342   1.083       .  S
C1345      C1350   1.385       .  A
C1345      C1346   1.402       .  A
C1345      N1351   1.343       .  A
C1346      C1347   1.401       .  A
C1346      H1357   1.082       .  S
C1347      C1356   1.376       .  A
C1347      C1348   1.384       .  A
C1348      C1349   1.406       .  A
C1348      N1354   1.346       .  A
C1349      C1350   1.406       .  A
C1349      H1358   1.082       .  S
C1350      C1353   1.382       .  A
N1351      C1352   1.355   1_545  A
N1351      H1361   1.045       .  S
C1352      C1353   1.397   1_565  A
C1353      H1359   1.082       .  S
N1354      C1355   1.357       .  A
N1354      H1362   1.045       .  S
C1355      C1356   1.393       .  A
C1356      H1360   1.082       .  S
C1363      C1368   1.385       .  A
C1363      C1364   1.406       .  A
C1363      N1369   1.346       .  A
C1364      C1365   1.406       .  A
C1364      H1375   1.082       .  S
C1365      C1374   1.380       .  A
C1365      C1366   1.385       .  A
C1366      C1367   1.397       .  A
C1366      N1372   1.339       .  A
C1367      C1368   1.397       .  A
C1367      H1376   1.082       .  S
C1368      C1371   1.371       .  A
N1369      C1370   1.357   1_545  A
N1369      H1379   1.045   1_545  S
C1370      C1371   1.391   1_565  A
C1371      H1377   1.082       .  S
N1372      C1373   1.352       .  A
N1372      H1380   1.045       .  S
C1373      C1374   1.396       .  A
C1374      H1378   1.082       .  S
C1381      C1386   1.384       .  A
C1381      C1382   1.408       .  A
C1381      N1387   1.348       .  A
C1382      C1383   1.407       .  A
C1382      H1393   1.083       .  S
C1383      C1392   1.382       .  A
C1383      C1384   1.384       .  A
C1384      C1385   1.403       .  A
C1384      N1390   1.344       .  A
C1385      C1386   1.401       .  A
C1385      H1394   1.083       .  S
C1386      C1389   1.377       .  A
N1387      C1388   1.358       .  A
N1387      H1397   1.045       .  S
C1388      C1389   1.392       .  A
C1389      H1395   1.083       .  S
N1390      C1391   1.355       .  A
N1390      H1398   1.045       .  S
C1391      C1392   1.397       .  A
C1392      H1396   1.082       .  S
C1399      C1404   1.385       .  A
C1399      C1400   1.405       .  A
C1399      N1405   1.344       .  A
C1400      C1401   1.404       .  A
C1400      H1411   1.082       .  S
C1401      C1410   1.380       .  A
C1401      C1402   1.385       .  A
C1402      C1403   1.404       .  A
C1402      N1408   1.344       .  A
C1403      C1404   1.403       .  A
C1403      H1412   1.082       .  S
C1404      C1407   1.379       .  A
N1405      C1406   1.356   1_545  A
N1405      H1415   1.045       .  S
C1406      C1407   1.395   1_565  A
C1407      H1413   1.082       .  S
N1408      C1409   1.356       .  A
N1408      H1416   1.045       .  S
C1409      C1410   1.395       .  A
C1410      H1414   1.082       .  S
C1417      C1422   1.385       .  A
C1417      C1418   1.405       .  A
C1417      N1423   1.344       .  A
C1418      C1419   1.403       .  A
C1418      H1429   1.083       .  S
C1419      C1428   1.380       .  A
C1419      C1420   1.384       .  A
C1420      C1421   1.403       .  A
C1420      N1426   1.344       .  A
C1421      C1422   1.402       .  A
C1421      H1430   1.083       .  S
C1422      C1425   1.378       .  A
N1423      C1424   1.355       .  A
N1423      H1433   1.045       .  S
C1424      C1425   1.394       .  A
C1425      H1431   1.083       .  S
N1426      C1427   1.354       .  A
N1426      H1434   1.045       .  S
C1427      C1428   1.395       .  A
C1428      H1432   1.083       .  S
C1435      C1440   1.385       .  A
C1435      C1436   1.403       .  A
C1435      N1441   1.343       .  A
C1436      C1437   1.402       .  A
C1436      H1447   1.082       .  S
C1437      C1446   1.377       .  A
C1437      C1438   1.385       .  A
C1438      C1439   1.405       .  A
C1438      N1444   1.345       .  A
C1439      C1440   1.404       .  A
C1439      H1448   1.082       .  S
C1440      C1443   1.380       .  A
N1441      C1442   1.355   1_545  A
N1441      H1451   1.045       .  S
C1442      C1443   1.395   1_565  A
C1443      H1449   1.082       .  S
N1444      C1445   1.356       .  A
N1444      H1452   1.045       .  S
C1445      C1446   1.395       .  A
C1446      H1450   1.082       .  S
C1453      C1458   1.384       .  A
C1453      C1454   1.402       .  A
C1453      N1459   1.344       .  A
C1454      C1455   1.402       .  A
C1454      H1465   1.083       .  S
C1455      C1464   1.376       .  A
C1455      C1456   1.384       .  A
C1456      C1457   1.407       .  A
C1456      N1462   1.346       .  A
C1457      C1458   1.406       .  A
C1457      H1466   1.083       .  S
C1458      C1461   1.382       .  A
N1459      C1460   1.355       .  A
N1459      H1469   1.045       .  S
C1460      C1461   1.396       .  A
C1461      H1467   1.083       .  S
N1462      C1463   1.357       .  A
N1462      H1470   1.045       .  S
C1463      C1464   1.393       .  A
C1464      H1468   1.083       .  S
C1471      C1476   1.384       .  A
C1471      C1472   1.405       .  A
C1471      N1477   1.345       .  A
C1472      C1473   1.404       .  A
C1472      H1483   1.082       .  S
C1473      C1482   1.380       .  A
C1473      C1474   1.384       .  A
C1474      C1475   1.404       .  A
C1474      N1480   1.344       .  A
C1475      C1476   1.403       .  A
C1475      H1484   1.083       .  S
C1476      C1479   1.379       .  A
N1477      C1478   1.355       .  A
N1477      H1487   1.045       .  S
C1478      C1479   1.395       .  A
C1479      H1485   1.083       .  S
N1480      C1481   1.355       .  A
N1480      H1488   1.045       .  S
C1481      C1482   1.396       .  A
C1482      H1486   1.082       .  S
C1489      C1494   1.385       .  A
C1489      C1490   1.400       .  A
C1489      N1495   1.341       .  A
C1490      C1491   1.399       .  A
C1490      H1501   1.082       .  S
C1491      C1500   1.373   1_554  A
C1491      C1492   1.385       .  A
C1492      C1493   1.405       .  A
C1492      N1498   1.346   1_554  A
C1493      C1494   1.405       .  A
C1493      H1502   1.082       .  S
C1494      C1497   1.380       .  A
N1495      C1496   1.354       .  A
N1495      H1505   1.045       .  S
C1496      C1497   1.396       .  A
C1497      H1503   1.082       .  S
N1498      C1499   1.356       .  A
N1498      H1506   1.045       .  S
C1499      C1500   1.392       .  A
C1500      H1504   1.082       .  S
C1507      C1512   1.385       .  A
C1507      C1508   1.405       .  A
C1507      N1513   1.346   1_554  A
C1508      C1509   1.405       .  A
C1508      H1519   1.082       .  S
C1509      C1518   1.380       .  A
C1509      C1510   1.385       .  A
C1510      C1511   1.402       .  A
C1510      N1516   1.344       .  A
C1511      C1512   1.402       .  A
C1511      H1520   1.082       .  S
C1512      C1515   1.376   1_554  A
N1513      C1514   1.356       .  A
N1513      H1523   1.045       .  S
C1514      C1515   1.394       .  A
C1515      H1521   1.082       .  S
N1516      C1517   1.355       .  A
N1516      H1524   1.045       .  S
C1517      C1518   1.396       .  A
C1518      H1522   1.082       .  S
C1525      C1530   1.384       .  A
C1525      C1526   1.403       .  A
C1525      N1531   1.343       .  A
C1526      C1527   1.402       .  A
C1526      H1537   1.083       .  S
C1527      C1536   1.377       .  A
C1527      C1528   1.384       .  A
C1528      C1529   1.405       .  A
C1528      N1534   1.345       .  A
C1529      C1530   1.404       .  A
C1529      H1538   1.083       .  S
C1530      C1533   1.380       .  A
N1531      C1532   1.355       .  A
N1531      H1541   1.045       .  S
C1532      C1533   1.395       .  A
C1533      H1539   1.083       .  S
N1534      C1535   1.355       .  A
N1534      H1542   1.045       .  S
C1535      C1536   1.394       .  A
C1536      H1540   1.083       .  S
C1543      C1548   1.384       .  A
C1543      C1544   1.404       .  A
C1543      N1549   1.345   1_554  A
C1544      C1545   1.403       .  A
C1544      H1555   1.082       .  S
C1545      C1554   1.379       .  A
C1545      C1546   1.384       .  A
C1546      C1547   1.407       .  A
C1546      N1552   1.347       .  A
C1547      C1548   1.407       .  A
C1547      H1556   1.082       .  S
C1548      C1551   1.383   1_554  A
N1549      C1550   1.355       .  A
N1549      H1559   1.045       .  S
C1550      C1551   1.397       .  A
C1551      H1557   1.082       .  S
N1552      C1553   1.357       .  A
N1552      H1560   1.045       .  S
C1553      C1554   1.395       .  A
C1554      H1558   1.082       .  S
C1561      C1566   1.384       .  A
C1561      C1562   1.404       .  A
C1561      N1567   1.344       .  A
C1562      C1563   1.403       .  A
C1562      H1573   1.083       .  S
C1563      C1572   1.379       .  A
C1563      C1564   1.384       .  A
C1564      C1565   1.406       .  A
C1564      N1570   1.346       .  A
C1565      C1566   1.406       .  A
C1565      H1574   1.083       .  S
C1566      C1569   1.381       .  A
N1567      C1568   1.355       .  A
N1567      H1577   1.045       .  S
C1568      C1569   1.396       .  A
C1569      H1575   1.083       .  S
N1570      C1571   1.357       .  A
N1570      H1578   1.045       .  S
C1571      C1572   1.394       .  A
C1572      H1576   1.083       .  S
C1579      C1584   1.384       .  A
C1579      C1580   1.406       .  A
C1579      N1585   1.346   1_554  A
C1580      C1581   1.405       .  A
C1580      H1591   1.082       .  S
C1581      C1590   1.380       .  A
C1581      C1582   1.385       .  A
C1582      C1583   1.403       .  A
C1582      N1588   1.345       .  A
C1583      C1584   1.403       .  A
C1583      H1592   1.082       .  S
C1584      C1587   1.377   1_554  A
N1585      C1586   1.356       .  A
N1585      H1595   1.045       .  S
C1586      C1587   1.394       .  A
C1587      H1593   1.082       .  S
N1588      C1589   1.356       .  A
N1588      H1596   1.045       .  S
C1589      C1590   1.396       .  A
C1590      H1594   1.082       .  S
C1597      C1602   1.384       .  A
C1597      C1598   1.404       .  A
C1597      N1603   1.344       .  A
C1598      C1599   1.403       .  A
C1598      H1609   1.083       .  S
C1599      C1608   1.378       .  A
C1599      C1600   1.384       .  A
C1600      C1601   1.404       .  A
C1600      N1606   1.345       .  A
C1601      C1602   1.403       .  A
C1601      H1610   1.083       .  S
C1602      C1605   1.379       .  A
N1603      C1604   1.355       .  A
N1603      H1613   1.045       .  S
C1604      C1605   1.395       .  A
C1605      H1611   1.083       .  S
N1606      C1607   1.355       .  A
N1606      H1614   1.045       .  S
C1607      C1608   1.394       .  A
C1608      H1612   1.083       .  S
C1615      C1620   1.384       .  A
C1615      C1616   1.405       .  A
C1615      N1621   1.345       .  A
C1616      C1617   1.404       .  A
C1616      H1627   1.083       .  S
C1617      C1626   1.379       .  A
C1617      C1618   1.385       .  A
C1618      C1619   1.402       .  A
C1618      N1624   1.343       .  A
C1619      C1620   1.401       .  A
C1619      H1628   1.083       .  S
C1620      C1623   1.376       .  A
N1621      C1622   1.356       .  A
N1621      H1631   1.045       .  S
C1622      C1623   1.393       .  A
C1623      H1629   1.083       .  S
N1624      C1625   1.355       .  A
N1624      H1632   1.045       .  S
C1625      C1626   1.394       .  A
C1626      H1630   1.083       .  S
