geometry optimzed in LAMMPS
_audit_creation_date              2020-11-30 
_audit_creation_method            'lammps2cif' 
_symmetry_space_group_name_H-M    'P1' 
_symmetry_Int_Tables_number       1 
_symmetry_cell_setting            triclinic 
loop_ 
_symmetry_equiv_pos_as_xyz 
  x,y,z 
_cell_length_a                    42.47841967 
_cell_length_b                    43.11838848559084 
_cell_length_c                    38.53837684588509 
_cell_angle_alpha                 89.86535260075496 
_cell_angle_beta                  90.2701765942453 
_cell_angle_gamma                 118.83859307208118 
loop_ 
_atom_site_label 
_atom_site_type_symbol 
_atom_site_fract_x 
_atom_site_fract_y 
_atom_site_fract_z 
_atom_site_charge 
O1          O  0.52346303  0.54481672  0.03430369    -0.74100
O2          O  0.46034983  0.48659864  0.46307766    -0.74100
O3          O  0.45841276  0.48617571  0.03271831    -0.74200
O4          O  0.52553689  0.54541411  0.46471926    -0.74200
O5          O  0.55238949  0.51191082  0.46498465    -0.74100
O6          O  0.48517579  0.45260544  0.03469041    -0.74100
O7          O  0.48675012  0.45267449  0.46375632    -0.74100
O8          O  0.55081601  0.51179066  0.03593225    -0.74200
Ni9        Ni  0.49106280  0.51689031  0.99863165     1.25400
Ni10       Ni  0.51977920  0.48096234  0.49988400     1.25400
C11         C  0.54752922  0.53817189  0.04681628     0.88100
C12         C  0.46283804  0.45999594  0.45182401     0.88000
C13         C  0.46065236  0.45972158  0.04495250     0.88100
C14         C  0.55003183  0.53873704  0.45373948     0.88200
O15         O  0.01735227  0.48906935  0.03514017    -0.74100
O16         O  0.02178018  0.55380329  0.46461307    -0.74100
O17         O  0.02192908  0.55409421  0.03483485    -0.74200
O18         O  0.01680257  0.48871157  0.46451198    -0.74200
O19         O  0.95695464  0.46329230  0.46546540    -0.74100
O20         O  0.96210366  0.52918127  0.03481600    -0.74100
O21         O  0.96191475  0.52836295  0.46396646    -0.74100
O22         O  0.95754557  0.46434479  0.03568946    -0.74200
Ni23       Ni  0.02159238  0.52228888  0.99978754     1.25400
Ni24       Ni  0.95750051  0.49544815  0.99996987     1.25400
C25         C  0.98677549  0.46619243  0.04713041     0.88100
C26         C  0.99266137  0.55157407  0.45248967     0.88000
C27         C  0.99285995  0.55231900  0.04640736     0.88100
C28         C  0.98591293  0.46517116  0.45352778     0.88200
O29         O  0.42705680  0.95493584  0.03782229    -0.74100
O30         O  0.48570306  0.94674236  0.46565117    -0.74100
O31         O  0.48698464  0.94677394  0.03656307    -0.74200
O32         O  0.42577311  0.95465277  0.46682318    -0.74200
O33         O  0.46000238  0.01341458  0.46779993    -0.74100
O34         O  0.52163269  0.00545454  0.03497708    -0.74100
O35         O  0.51911186  0.00559757  0.46556016    -0.74100
O36         O  0.46241154  0.01351315  0.03730478    -0.74200
Ni37       Ni  0.45503879  0.94851954  0.50176531     1.25400
Ni38       Ni  0.49192953  0.01142893  0.50146052     1.25400
C39         C  0.43515472  0.98593028  0.04905228     0.88100
C40         C  0.51213435  0.97524347  0.45384128     0.88000
C41         C  0.51483435  0.97505720  0.04663681     0.88100
C42         C  0.43301015  0.98555496  0.45600856     0.88200
C43         C  0.04401451  0.77146889  0.24984136     0.86800
C44         C  0.04302339  0.74963207  0.28157307    -0.53400
C45         C  0.01529820  0.71559897  0.28144896     0.09800
C46         C  0.99044418  0.70668155  0.24940925     0.20700
C47         C  0.04410885  0.74945578  0.21873376    -0.54100
C48         C  0.01622681  0.71544319  0.21835356     0.09900
C49         C  0.00677098  0.76914334  0.24862066    -0.53700
C50         C  0.97863803  0.73539825  0.24839120     0.10400
H51         H  0.06312810  0.76024962  0.30200315     0.14900
H52         H  0.96787433  0.67911505  0.24913796     0.00700
H53         H  0.06469501  0.76005694  0.19889866     0.15300
H54         H  0.00260420  0.79201441  0.24746750     0.15000
C55         C  0.93693075  0.24885437  0.25046239     0.86800
C56         C  0.93901634  0.27175014  0.28155078    -0.53400
C57         C  0.96831122  0.30475792  0.28137967     0.09800
C58         C  0.99319922  0.31167033  0.24976232     0.20700
C59         C  0.93870602  0.27085816  0.21867817    -0.54100
C60         C  0.96779875  0.30396234  0.21830643     0.09900
C61         C  0.97257680  0.24822424  0.25073629    -0.53700
C62         C  0.00235179  0.28098011  0.25026527     0.10400
H63         H  0.91857597  0.26279754  0.30158881     0.14900
H64         H  0.01698930  0.33848525  0.24922692     0.00700
H65         H  0.91802987  0.26133361  0.19870122     0.15300
H66         H  0.97379844  0.22371020  0.25128758     0.15000
C67         C  0.23623899  0.30850774  0.24920270     0.86800
C68         C  0.25978802  0.32858131  0.28021072    -0.53400
C69         C  0.29358697  0.33208953  0.27961366     0.09800
C70         C  0.30044660  0.31452429  0.24771001     0.20700
C71         C  0.25806433  0.32816916  0.21727153    -0.54100
C72         C  0.29177561  0.33152290  0.21625987     0.09900
C73         C  0.23631694  0.27297770  0.24908812    -0.53700
C74         C  0.26976559  0.27577356  0.24835817     0.10400
H75         H  0.25021608  0.33898532  0.30080742     0.14900
H76         H  0.32785407  0.31742732  0.24711765     0.00700
H77         H  0.24747122  0.33838830  0.19726630     0.15300
H78         H  0.21186141  0.24761757  0.24970479     0.15000
C79         C  0.28138871  0.06262180  0.24995127     0.86800
C80         C  0.30283563  0.06069543  0.28116030    -0.53400
C81         C  0.30631722  0.03077848  0.28215996     0.09800
C82         C  0.28791658  0.00539788  0.25157078     0.20700
C83         C  0.30064386  0.05824064  0.21824201    -0.54100
C84         C  0.30392046  0.02820197  0.21891455     0.09900
C85         C  0.24524519  0.02777515  0.25151198    -0.53700
C86         C  0.24862871  0.99779251  0.25224845     0.10400
H87         H  0.31400108  0.08125588  0.30080168     0.14900
H88         H  0.29135441  0.98153045  0.25250944     0.00700
H89         H  0.31080366  0.07727470  0.19713646     0.15300
H90         H  0.21915318  0.02647202  0.25151999     0.15000
C91         C  0.73117341  0.02494074  0.25048330     0.86800
C92         C  0.70796226  0.01944180  0.21839622    -0.53400
C93         C  0.67533265  0.98946723  0.21912106     0.09800
C94         C  0.66893890  0.96730624  0.25251099     0.20700
C95         C  0.70780815  0.02350237  0.28096635    -0.54100
C96         C  0.67504162  0.99364960  0.28223140     0.09900
C97         C  0.73411851  0.99114131  0.25356491    -0.53700
C98         C  0.70168099  0.96083367  0.25456130     0.10400
H99         H  0.71660169  0.03822765  0.19703519     0.14900
H100        H  0.64245444  0.94297634  0.25350740     0.00700
H101        H  0.71678660  0.04475921  0.29983920     0.15300
H102        H  0.75951078  0.99089665  0.25451609     0.15000
C103        C  0.71377674  0.74963676  0.25052445     0.86800
C104        C  0.69400838  0.72654698  0.21943144    -0.53400
C105        C  0.69339793  0.69456792  0.21874165     0.09800
C106        C  0.71344431  0.68877746  0.24962552     0.20700
C107        C  0.69598496  0.72662917  0.28203641    -0.54100
C108        C  0.69532197  0.69465261  0.28193788     0.09900
C109        C  0.75128956  0.75294412  0.24927559    -0.53700
C110        C  0.75157495  0.72135133  0.24843036     0.10400
H111        H  0.68077964  0.73460378  0.19998469     0.14900
H112        H  0.71316272  0.66292886  0.24920396     0.00700
H113        H  0.68388018  0.73477417  0.30237647     0.15300
H114        H  0.77570999  0.77812451  0.24870956     0.15000
C115        C  0.69004630  0.81800112  0.25208027     0.30100
C116        C  0.66690855  0.83285205  0.25111735    -0.36200
C117        C  0.68357308  0.86992237  0.25417815     0.16100
C118        C  0.72028062  0.89045415  0.25806571     0.21900
C119        C  0.74314766  0.87570522  0.25906493    -0.34300
C120        C  0.72665356  0.83902606  0.25575156     0.16000
O121        O  0.68077926  0.78414878  0.24960276    -0.26400
C122        C  0.71197096  0.78372173  0.25142348     0.05800
C123        C  0.74136047  0.81732562  0.25529553    -0.31200
O124        O  0.73065866  0.92434923  0.25941802    -0.23100
C125        C  0.70044027  0.92611912  0.25634309    -0.03100
C126        C  0.67001552  0.89298563  0.25310828    -0.17500
H127        H  0.63810502  0.81672910  0.24788103     0.20500
H128        H  0.77201180  0.89187535  0.26177926     0.18900
H129        H  0.76955409  0.82517517  0.25805253     0.18800
H130        H  0.64231256  0.88681788  0.24949889     0.14700
C131        C  0.29580376  0.15133948  0.24776140     0.30100
C132        C  0.31587291  0.18862319  0.24595029    -0.36200
C133        C  0.29601658  0.20701698  0.24746121     0.16100
C134        C  0.25911147  0.18970497  0.25057737     0.21900
C135        C  0.23924748  0.15273190  0.25243766    -0.34300
C136        C  0.25895335  0.13450366  0.25082906     0.16000
O137        O  0.30845200  0.12865939  0.24689047    -0.26400
C138        C  0.27922537  0.09684419  0.24929310     0.05800
C139        C  0.24770228  0.09918353  0.25184245    -0.31200
O140        O  0.24566621  0.21150603  0.25131650    -0.23100
C141        C  0.27410184  0.24355963  0.24867639    -0.03100
C142        C  0.30635402  0.24246338  0.24622066    -0.17500
H143        H  0.34485475  0.20229109  0.24347643     0.20500
H144        H  0.21026456  0.13906086  0.25486557     0.18900
H145        H  0.22029475  0.07829331  0.25443906     0.18800
H146        H  0.33333833  0.26436332  0.24368903     0.14700
C147        C  0.09562229  0.30937071  0.25107317     0.30100
C148        C  0.13270056  0.33345592  0.25198387    -0.36200
C149        C  0.15578044  0.31854382  0.25122872     0.16100
C150        C  0.14319355  0.28248574  0.24978411     0.21900
C151        C  0.10632972  0.25855442  0.24884233    -0.34300
C152        C  0.08341731  0.27341734  0.24952745     0.16000
O153        O  0.06901438  0.31713878  0.25148646    -0.26400
C154        C  0.03942167  0.28564148  0.25021222     0.05800
C155        C  0.04705962  0.25762474  0.24889965    -0.31200
O156        O  0.16922364  0.27414657  0.24912669    -0.23100
C157        C  0.19915700  0.30522797  0.25004655    -0.03100
C158        C  0.19239565  0.33382323  0.25139217    -0.17500
H159        H  0.14285071  0.36180253  0.25311498     0.20500
H160        H  0.09616906  0.23020301  0.24758122     0.18900
H161        H  0.02875325  0.22948612  0.24759372     0.18800
H162        H  0.21174844  0.36175610  0.25223090     0.14700
C163        C  0.79847707  0.11428367  0.24803600     0.30100
C164        C  0.81129082  0.15087177  0.24758053    -0.36200
C165        C  0.84862495  0.17195254  0.24897837     0.16100
C166        C  0.87183298  0.15804369  0.25046944     0.21900
C167        C  0.85896886  0.12133408  0.25089933    -0.34300
C168        C  0.82149965  0.10018699  0.24970525     0.16000
O169        O  0.76453251  0.08987584  0.24766945    -0.26400
C170        C  0.76552820  0.05956120  0.24926798     0.05800
C171        C  0.80042744  0.06435631  0.25046672    -0.31200
O172        O  0.90577764  0.18280226  0.25141270    -0.23100
C173        C  0.90420149  0.21290218  0.25059783    -0.03100
C174        C  0.86928945  0.20770457  0.24918710    -0.17500
H175        H  0.79336537  0.16210417  0.24647159     0.20500
H176        H  0.87688230  0.11008505  0.25226947     0.18900
H177        H  0.80929657  0.04472655  0.25209054     0.18800
H178        H  0.86058547  0.22750658  0.24814035     0.14700
C179        C  0.13008774  0.84838367  0.25038138     0.30100
C180        C  0.16785481  0.86733197  0.24957638    -0.36200
C181        C  0.18349590  0.90441045  0.25116715     0.16100
C182        C  0.16337778  0.92161961  0.25343762     0.21900
C183        C  0.12568265  0.90268935  0.25424507    -0.34300
C184        C  0.11007207  0.86567865  0.25254077     0.16000
O185        O  0.10982061  0.81362148  0.24916324    -0.26400
C186        C  0.07622510  0.80842147  0.25033922     0.05800
C187        C  0.07495062  0.84012415  0.25252598    -0.31200
O188        O  0.18343801  0.95637257  0.25433063    -0.23100
C189        C  0.21700812  0.96171236  0.25265810    -0.03100
C190        C  0.21860457  0.93019787  0.25063498    -0.17500
H191        H  0.18391583  0.85410310  0.24773881     0.20500
H192        H  0.10961513  0.91592046  0.25592699     0.18900
H193        H  0.05185519  0.84424084  0.25421237     0.18800
H194        H  0.24199115  0.92654380  0.24867561     0.14700
C195        C  0.89911577  0.74020915  0.23653556     0.30100
C196        C  0.87938558  0.75750497  0.22856607    -0.36200
C197        C  0.84254503  0.73862220  0.23526362     0.16100
C198        C  0.82572227  0.70485321  0.24880987     0.21900
C199        C  0.84558023  0.68714911  0.25635440    -0.34300
C200        C  0.88286320  0.70621643  0.24964300     0.16000
O201        O  0.93419423  0.75416547  0.23406391    -0.26400
C202        C  0.94109018  0.72892102  0.24542096     0.05800
C203        C  0.91009104  0.69822635  0.25529579    -0.31200
O204        O  0.79101458  0.69330363  0.25461029    -0.23100
C205        C  0.78595444  0.72030513  0.24472070    -0.03100
C206        C  0.81720325  0.74887962  0.23215199    -0.17500
H207        H  0.89209835  0.78431709  0.21872524     0.20500
H208        H  0.83309174  0.66085849  0.26744530     0.18900
H209        H  0.90807412  0.67422900  0.26628902     0.18800
H210        H  0.82115313  0.77409174  0.22258360     0.14700
C211        C  0.62829752  0.99183209  0.14546743     0.30100
C212        C  0.62306877  0.00830519  0.11650537    -0.36200
C213        C  0.58928560  0.99051130  0.10088865     0.16100
C214        C  0.56235877  0.95827327  0.11237550     0.21900
C215        C  0.56775057  0.94151529  0.14151943    -0.34300
C216        C  0.60170455  0.95977724  0.15768270     0.16000
O217        O  0.65720078  0.00535923  0.16496511    -0.26400
C218        C  0.64949799  0.98202290  0.19041271     0.05800
C219        C  0.61524523  0.95284714  0.18727979    -0.31200
O220        O  0.53226852  0.94747891  0.09431113    -0.23100
C221        C  0.54037183  0.97351266  0.07145795    -0.03100
C222        C  0.57542809  0.00077557  0.07441479    -0.17500
H223        H  0.64355130  0.03386592  0.10750793     0.20500
H224        H  0.54671682  0.91673310  0.15149547     0.18900
H225        H  0.60191198  0.93050351  0.20461424     0.18800
H226        H  0.58853408  0.02510008  0.05965572     0.14700
C227        C  0.57917643  0.99515246  0.39248952     0.30100
C228        C  0.61007351  0.01802820  0.37429831    -0.36200
C229        C  0.62159078  0.00235708  0.34942178     0.16100
C230        C  0.60408042  0.96655636  0.34244646     0.21900
C231        C  0.57287624  0.94337112  0.36093953    -0.34300
C232        C  0.56122811  0.95916448  0.38622800     0.16000
O233        O  0.56408007  0.00475277  0.41671599    -0.26400
C234        C  0.53592024  0.97472238  0.42657957     0.05800
C235        C  0.53262359  0.94523891  0.40857937    -0.31200
O236        O  0.62009320  0.95817677  0.31755994    -0.23100
C237        C  0.64822016  0.98915273  0.30898987    -0.03100
C238        C  0.65013081  0.01736661  0.32801766    -0.17500
H239        H  0.62421663  0.04625731  0.37922880     0.20500
H240        H  0.55872405  0.91515777  0.35597374     0.18900
H241        H  0.51222202  0.91783671  0.41143108     0.18800
H242        H  0.66948334  0.04523539  0.32624139     0.14700
C243        C  0.39182814  0.01658390  0.39725550     0.30100
C244        C  0.38627374  0.04253031  0.38081744    -0.36200
C245        C  0.36156947  0.03085089  0.35337963     0.16100
C246        C  0.34368005  0.99606920  0.34252019     0.19800
C247        C  0.34908250  0.96992480  0.35919586    -0.34300
C248        C  0.37367748  0.98158422  0.38699982     0.16000
O249        O  0.41440090  0.02208996  0.42292112    -0.26400
C250        C  0.41064147  0.99023996  0.42961117     0.05800
C251        C  0.38551769  0.96382928  0.40819282    -0.31200
O252        O  0.32209406  0.99135819  0.31591923    -0.23100
C253        C  0.32604154  0.02351145  0.30997601    -0.03100
C254        C  0.35036529  0.04907243  0.33254446    -0.17500
H255        H  0.40039255  0.06999064  0.38878952     0.20500
H256        H  0.33521398  0.94252488  0.35101192     0.18900
H257        H  0.37789737  0.93598657  0.40770727     0.18800
H258        H  0.35892362  0.07710560  0.33337188     0.14700
C259        C  0.37509248  0.98210506  0.11384739     0.30100
C260        C  0.34840018  0.96712414  0.13952462    -0.36200
C261        C  0.34038092  0.99087426  0.15746059     0.16100
C262        C  0.35701974  0.02664300  0.15018567     0.21900
C263        C  0.38354698  0.04152630  0.12469346    -0.34300
C264        C  0.39191119  0.01801133  0.10727971     0.16000
O265        O  0.38761823  0.96532343  0.09421806    -0.26400
C266        C  0.41294840  0.99110237  0.07523172     0.05800
C267        C  0.41668213  0.02428672  0.08240249    -0.31200
O268        O  0.34600165  0.04415345  0.17024568    -0.23100
C269        C  0.32218767  0.01947217  0.19108347    -0.03100
C270        C  0.31749925  0.98573989  0.18429782    -0.17500
H271        H  0.33528317  0.93918552  0.14545801     0.20500
H272        H  0.39712416  0.06954902  0.11921464     0.18900
H273        H  0.43502803  0.04945118  0.07084045     0.18800
H274        H  0.29996896  0.96111329  0.19723699     0.14700
C275        C  0.01702200  0.62138249  0.10619584     0.30100
C276        C  0.04032351  0.65319090  0.12287779    -0.36200
C277        C  0.02520938  0.66400010  0.14929010     0.16100
C278        C  0.98970151  0.64479844  0.15907275     0.21900
C279        C  0.96620757  0.61296275  0.14215693    -0.34300
C280        C  0.98127680  0.60228376  0.11534831     0.16000
O281        O  0.02572843  0.60639243  0.08095335    -0.26400
C282        C  0.99512038  0.57739555  0.07344596     0.05800
C283        C  0.96646783  0.57348033  0.09393824    -0.31200
O284        O  0.98162509  0.65997118  0.18480194    -0.23100
C285        C  0.01234603  0.68945895  0.19121819    -0.03100
C286        C  0.04030267  0.69315621  0.16985878    -0.17500
H287        H  0.06826159  0.66846224  0.11573888     0.20500
H288        H  0.93825054  0.59768371  0.14931381     0.18900
H289        H  0.93895857  0.55229762  0.09341372     0.18800
H290        H  0.06790966  0.71404255  0.16965998     0.14700
C291        C  0.01716898  0.62024916  0.39214033     0.30100
C292        C  0.04033250  0.65240141  0.37596764    -0.36200
C293        C  0.02512017  0.66331921  0.34950680     0.16100
C294        C  0.98975075  0.64380765  0.33910654     0.21900
C295        C  0.96650646  0.61154129  0.35534278    -0.34300
C296        C  0.98157493  0.60085461  0.38231295     0.16000
O297        O  0.02568702  0.60544553  0.41785588    -0.26400
C298        C  0.99507943  0.57631884  0.42496689     0.05800
C299        C  0.96666430  0.57206344  0.40370664    -0.31200
O300        O  0.98138722  0.65929174  0.31374235    -0.23100
C301        C  0.01173891  0.68933359  0.30820781    -0.03100
C302        C  0.03980727  0.69305601  0.32972851    -0.17500
H303        H  0.06809436  0.66799538  0.38374306     0.20500
H304        H  0.93863781  0.59612823  0.34780150     0.18900
H305        H  0.93920242  0.55082048  0.40390107     0.18800
H306        H  0.06720651  0.71433989  0.33055416     0.14700
C307        C  0.99746017  0.41635372  0.38661952     0.30100
C308        C  0.01575433  0.40880171  0.36046176    -0.36200
C309        C  0.99530580  0.37740553  0.34167090     0.16100
C310        C  0.95949730  0.35491066  0.34851167     0.21900
C311        C  0.94116671  0.36256122  0.37436967    -0.34300
C312        C  0.96145834  0.39403582  0.39282977     0.16000
O313        O  0.01115104  0.44424523  0.40732214    -0.26400
C314        C  0.98340833  0.43978695  0.42674613     0.05800
C315        C  0.95182928  0.40904187  0.41878587    -0.31200
O316        O  0.94567011  0.32676176  0.32840494    -0.23100
C317        C  0.97279231  0.33119125  0.30809336    -0.03100
C318        C  0.00438669  0.36239382  0.31504650    -0.17500
H319        H  0.04389961  0.42619223  0.35510530     0.20500
H320        H  0.91301359  0.34518255  0.37969097     0.18900
H321        H  0.92562945  0.39917299  0.43052134     0.18800
H322        H  0.03032066  0.37231510  0.30274644     0.14700
C323        C  0.99344998  0.37288952  0.15729860     0.30100
C324        C  0.01683515  0.40162676  0.13655520    -0.36200
C325        C  0.00042453  0.41474094  0.11333788     0.16100
C326        C  0.96361900  0.40074548  0.11091546     0.21900
C327        C  0.94031542  0.37208307  0.13154214    -0.34300
C328        C  0.95668015  0.35879983  0.15438981     0.16000
O329        O  0.00269592  0.35600810  0.18047557    -0.26400
C330        C  0.97133028  0.33052005  0.19207112     0.05800
C331        C  0.94189608  0.33115882  0.17678285    -0.31200
O332        O  0.95399074  0.41691515  0.08747599    -0.23100
C333        C  0.98500853  0.44160710  0.07454822    -0.03100
C334        C  0.01482710  0.44149274  0.08962516    -0.17500
H335        H  0.04568409  0.41275932  0.13817979     0.20500
H336        H  0.91146903  0.36071759  0.12966872     0.18900
H337        H  0.91365032  0.31383652  0.18159952     0.18800
H338        H  0.04293377  0.45858678  0.08390160     0.14700
C339        C  0.63521810  0.64549381  0.15153613     0.30100
C340        C  0.60896227  0.63871215  0.12637356    -0.36200
C341        C  0.59700717  0.60724405  0.10788718     0.16100
C342        C  0.61003883  0.58385548  0.11332930     0.21900
C343        C  0.63646377  0.59063863  0.13889996    -0.34300
C344        C  0.64834969  0.62231434  0.15781785     0.16000
O345        O  0.64961849  0.67337303  0.17174191    -0.26400
C346        C  0.67233735  0.66838506  0.19171667     0.05800
C347        C  0.67276259  0.63691977  0.18435171    -0.31200
O348        O  0.59468774  0.55602776  0.09247146    -0.23100
C349        C  0.57156008  0.56197731  0.07384734    -0.03100
C350        C  0.57194817  0.59337611  0.08249260    -0.17500
H351        H  0.59842549  0.65674401  0.12164539     0.20500
H352        H  0.64684534  0.57252716  0.14378599     0.18900
H353        H  0.68860478  0.62641505  0.19658074     0.18800
H354        H  0.55604774  0.60447250  0.07149655     0.14700
C355        C  0.64191464  0.64761211  0.35246357     0.30100
C356        C  0.61923439  0.64287690  0.38040339    -0.36200
C357        C  0.60474728  0.61008510  0.39693133     0.16100
C358        C  0.61215807  0.58354268  0.38707812     0.21900
C359        C  0.63501844  0.58831932  0.35874337    -0.34300
C360        C  0.64944240  0.62137741  0.34181197     0.16000
O361        O  0.65742525  0.67612868  0.33320994    -0.26400
C362        C  0.67535656  0.66862583  0.30950631     0.05800
C363        C  0.67137971  0.63472825  0.31342215    -0.31200
O364        O  0.59464512  0.55464358  0.40622406    -0.23100
C365        C  0.57573239  0.56309382  0.42815124    -0.03100
C366        C  0.58111989  0.59721553  0.42346212    -0.17500
H367        H  0.61287948  0.66327184  0.38838820     0.20500
H368        H  0.64071605  0.56764938  0.35023322     0.18900
H369        H  0.68253348  0.62173096  0.29761057     0.18800
H370        H  0.56888702  0.61045529  0.43734688     0.14700
C371        C  0.36616673  0.37005398  0.33895139     0.30100
C372        C  0.39839889  0.37623122  0.35539234    -0.36200
C373        C  0.41020046  0.40072458  0.38297579     0.16100
C374        C  0.39161118  0.41798822  0.39325009     0.21900
C375        C  0.35947066  0.41159772  0.37716354    -0.34300
C376        C  0.34768107  0.38713138  0.34996732     0.16000
O377        O  0.35003827  0.34854722  0.31247886    -0.26400
C378        C  0.32074234  0.35181582  0.30687780     0.05800
C379        C  0.31815888  0.37560201  0.32948520    -0.31200
O380        O  0.40766815  0.44058050  0.41861531    -0.23100
C381        C  0.43693327  0.43780369  0.42516714    -0.03100
C382        C  0.43995579  0.41323210  0.40393884    -0.17500
H383        H  0.41327946  0.36306016  0.34717409     0.20500
H384        H  0.34474860  0.42500723  0.38518211     0.18900
H385        H  0.29771921  0.38371006  0.33057986     0.18800
H386        H  0.46126467  0.40627802  0.40350872     0.14700
C387        C  0.36259061  0.36887112  0.15582887     0.30100
C388        C  0.39503530  0.37550612  0.14002707    -0.36200
C389        C  0.40687422  0.40012554  0.11265940     0.16100
C390        C  0.38815650  0.41717715  0.10186752     0.21900
C391        C  0.35560152  0.41024274  0.11731495    -0.34300
C392        C  0.34371004  0.38551819  0.14441384     0.16000
O393        O  0.34698037  0.34764339  0.18246770    -0.26400
C394        C  0.31754822  0.35052137  0.18795524     0.05800
C395        C  0.31420473  0.37372913  0.16489795    -0.31200
O396        O  0.40456461  0.44004695  0.07675659    -0.23100
C397        C  0.43408530  0.43749728  0.07100547    -0.03100
C398        C  0.43694581  0.41295292  0.09248793    -0.17500
H399        H  0.41017183  0.36268239  0.14870438     0.20500
H400        H  0.34076485  0.42351989  0.10902619     0.18900
H401        H  0.29356513  0.38158625  0.16381299     0.18800
H402        H  0.45836870  0.40617321  0.09356653     0.14700
O403        O  0.52346312  0.54481673  0.53430370    -0.74100
O404        O  0.46034980  0.48659867  0.96307758    -0.74100
O405        O  0.45841285  0.48617572  0.53271840    -0.74200
O406        O  0.52553686  0.54541415  0.96471924    -0.74200
O407        O  0.55238943  0.51191083  0.96498460    -0.74100
O408        O  0.48517585  0.45260542  0.53469046    -0.74100
O409        O  0.48675007  0.45267450  0.96375628    -0.74100
O410        O  0.55081607  0.51179064  0.53593229    -0.74200
Ni411      Ni  0.49106287  0.51689030  0.49863170     1.25400
Ni412      Ni  0.51977915  0.48096236  0.99988395     1.25400
C413        C  0.54752930  0.53817189  0.54681630     0.88100
C414        C  0.46283800  0.45999595  0.95182395     0.88000
C415        C  0.46065244  0.45972157  0.54495257     0.88100
C416        C  0.55003179  0.53873708  0.95373946     0.88200
O417        O  0.01735216  0.48906929  0.53514019    -0.74100
O418        O  0.02178028  0.55380339  0.96461309    -0.74100
O419        O  0.02192895  0.55409414  0.53483484    -0.74200
O420        O  0.01680265  0.48871165  0.96451196    -0.74200
O421        O  0.95695472  0.46329241  0.96546539    -0.74100
O422        O  0.96210353  0.52918119  0.53481596    -0.74100
O423        O  0.96191486  0.52836307  0.96396651    -0.74100
O424        O  0.95754545  0.46434472  0.53568948    -0.74200
Ni425      Ni  0.02159227  0.52228880  0.49978754     1.25400
Ni426      Ni  0.95750040  0.49544806  0.49996986     1.25400
C427        C  0.98677537  0.46619237  0.54713044     0.88100
C428        C  0.99266148  0.55157418  0.95248971     0.88000
C429        C  0.99285981  0.55231891  0.54640733     0.88100
C430        C  0.98591301  0.46517126  0.95352777     0.88200
O431        O  0.42705689  0.95493589  0.53782224    -0.74100
O432        O  0.48570298  0.94674242  0.96565117    -0.74100
O433        O  0.48698469  0.94677392  0.53656307    -0.74200
O434        O  0.42577300  0.95465276  0.96682323    -0.74200
O435        O  0.46000226  0.01341458  0.96779997    -0.74100
O436        O  0.52163281  0.00545450  0.53497701    -0.74100
O437        O  0.51911178  0.00559763  0.96556021    -0.74100
O438        O  0.46241169  0.01351319  0.53730474    -0.74200
Ni439      Ni  0.45503871  0.94851955  0.00176534     1.25400
Ni440      Ni  0.49192941  0.01142894  0.00146057     1.25400
C441        C  0.43515486  0.98593034  0.54905223     0.88100
C442        C  0.51213426  0.97524354  0.95384131     0.88000
C443        C  0.51483443  0.97505717  0.54663678     0.88100
C444        C  0.43301004  0.98555495  0.95600859     0.88200
C445        C  0.04401449  0.77146885  0.74984130     0.86800
C446        C  0.04302337  0.74963205  0.78157302    -0.53400
C447        C  0.01529818  0.71559895  0.78144892     0.09800
C448        C  0.99044414  0.70668153  0.74940922     0.20700
C449        C  0.04410883  0.74945573  0.71873369    -0.54100
C450        C  0.01622677  0.71544314  0.71835352     0.09900
C451        C  0.00677096  0.76914337  0.74862061    -0.53700
C452        C  0.97863801  0.73539822  0.74839116     0.10400
H453        H  0.06312810  0.76024960  0.80200309     0.14900
H454        H  0.96787429  0.67911502  0.74913795     0.00700
H455        H  0.06469491  0.76005684  0.69889866     0.15300
H456        H  0.00260423  0.79201417  0.74746746     0.15000
C457        C  0.93693075  0.24885438  0.75046242     0.86800
C458        C  0.93901634  0.27175016  0.78155078    -0.53400
C459        C  0.96831120  0.30475793  0.78137969     0.09800
C460        C  0.99319921  0.31167033  0.74976235     0.20700
C461        C  0.93870604  0.27085815  0.71867818    -0.54100
C462        C  0.96779876  0.30396234  0.71830645     0.09900
C463        C  0.97257680  0.24822425  0.75073634    -0.53700
C464        C  0.00235179  0.28098012  0.75026532     0.10400
H465        H  0.91857589  0.26279754  0.80158887     0.14900
H466        H  0.01698930  0.33848527  0.74922695     0.00700
H467        H  0.91802989  0.26133361  0.69870122     0.15300
H468        H  0.97379843  0.22371021  0.75128765     0.15000
C469        C  0.23623896  0.30850768  0.74920267     0.86800
C470        C  0.25978798  0.32858125  0.78021069    -0.53400
C471        C  0.29358693  0.33208946  0.77961364     0.09800
C472        C  0.30044657  0.31452423  0.74771000     0.20700
C473        C  0.25806431  0.32816910  0.71727148    -0.54100
C474        C  0.29177560  0.33152283  0.71625986     0.09900
C475        C  0.23631692  0.27297764  0.74908810    -0.53700
C476        C  0.26976556  0.27577350  0.74835815     0.10400
H477        H  0.25021605  0.33898524  0.80080735     0.14900
H478        H  0.32785405  0.31742726  0.74711765     0.00700
H479        H  0.24747126  0.33838819  0.69726636     0.15300
H480        H  0.21186133  0.24761745  0.74970476     0.15000
C481        C  0.28138871  0.06262175  0.74995119     0.86800
C482        C  0.30283558  0.06069535  0.78116025    -0.53400
C483        C  0.30631717  0.03077840  0.78215990     0.09800
C484        C  0.28791660  0.00539784  0.75157068     0.20700
C485        C  0.30064394  0.05824065  0.71824194    -0.54100
C486        C  0.30392053  0.02820197  0.71891449     0.09900
C487        C  0.24524520  0.02777509  0.75151182    -0.53700
C488        C  0.24862872  0.99779246  0.75224828     0.10400
H489        H  0.31400097  0.08125577  0.80080164     0.14900
H490        H  0.29135443  0.98153041  0.75250933     0.00700
H491        H  0.31080374  0.07727467  0.69713649     0.15300
H492        H  0.21915317  0.02647196  0.75151980     0.15000
C493        C  0.73117339  0.02494079  0.75048342     0.86800
C494        C  0.70796222  0.01944189  0.71839636    -0.53400
C495        C  0.67533260  0.98946732  0.71912120     0.09800
C496        C  0.66893887  0.96730631  0.75251110     0.20700
C497        C  0.70780816  0.02350240  0.78096649    -0.54100
C498        C  0.67504162  0.99364964  0.78223155     0.09900
C499        C  0.73411848  0.99114135  0.75356498    -0.53700
C500        C  0.70168095  0.96083372  0.75456136     0.10400
H501        H  0.71660165  0.03822776  0.69703535     0.14900
H502        H  0.64245440  0.94297641  0.75350752     0.00700
H503        H  0.71678664  0.04475924  0.79983937     0.15300
H504        H  0.75951071  0.99089668  0.75451612     0.15000
C505        C  0.71377671  0.74963681  0.75052445     0.86800
C506        C  0.69400841  0.72654702  0.71943144    -0.53400
C507        C  0.69339798  0.69456798  0.71874165     0.09800
C508        C  0.71344432  0.68877752  0.74962555     0.20700
C509        C  0.69598493  0.72662919  0.78203636    -0.54100
C510        C  0.69532194  0.69465267  0.78193789     0.09900
C511        C  0.75128954  0.75294418  0.74927564    -0.53700
C512        C  0.75157496  0.72135141  0.74843043     0.10400
H513        H  0.68077964  0.73460384  0.69998461     0.14900
H514        H  0.71316275  0.66292893  0.74920401     0.00700
H515        H  0.68388001  0.73477426  0.80237659     0.15300
H516        H  0.77571001  0.77812462  0.74870963     0.15000
C517        C  0.69004624  0.81800116  0.75208022     0.30100
C518        C  0.66690850  0.83285208  0.75111730    -0.36200
C519        C  0.68357302  0.86992240  0.75417813     0.16100
C520        C  0.72028057  0.89045419  0.75806571     0.21900
C521        C  0.74314756  0.87570523  0.75906492    -0.34300
C522        C  0.72665351  0.83902610  0.75575153     0.16000
O523        O  0.68077921  0.78414881  0.74960271    -0.26400
C524        C  0.71197092  0.78372177  0.75142345     0.05800
C525        C  0.74136037  0.81732565  0.75529552    -0.31200
O526        O  0.73065860  0.92434926  0.75941805    -0.23100
C527        C  0.70044022  0.92611916  0.75634312    -0.03100
C528        C  0.67001547  0.89298568  0.75310828    -0.17500
H529        H  0.63810493  0.81672912  0.74788095     0.20500
H530        H  0.77201193  0.89187549  0.76177929     0.18900
H531        H  0.76955425  0.82517527  0.75805256     0.18800
H532        H  0.64231248  0.88681792  0.74949887     0.14700
C533        C  0.29580376  0.15133943  0.74776142     0.30100
C534        C  0.31587291  0.18862314  0.74595039    -0.36200
C535        C  0.29601658  0.20701693  0.74746126     0.16100
C536        C  0.25911145  0.18970491  0.75057732     0.21900
C537        C  0.23924745  0.15273183  0.75243755    -0.34300
C538        C  0.25895335  0.13450360  0.75082899     0.16000
O539        O  0.30845201  0.12865935  0.74689050    -0.26400
C540        C  0.27922537  0.09684414  0.74929303     0.05800
C541        C  0.24770227  0.09918346  0.75184232    -0.31200
O542        O  0.24566618  0.21150596  0.75131641    -0.23100
C543        C  0.27410182  0.24355957  0.74867639    -0.03100
C544        C  0.30635400  0.24246332  0.74622074    -0.17500
H545        H  0.34485476  0.20229105  0.74347660     0.20500
H546        H  0.21026458  0.13906081  0.75486537     0.18900
H547        H  0.22029475  0.07829326  0.75443884     0.18800
H548        H  0.33333836  0.26436330  0.74368918     0.14700
C549        C  0.09562228  0.30937067  0.75107314     0.30100
C550        C  0.13270058  0.33345596  0.75198383    -0.36200
C551        C  0.15578042  0.31854376  0.75122866     0.16100
C552        C  0.14319354  0.28248571  0.74978405     0.21900
C553        C  0.10632968  0.25855436  0.74884227    -0.34300
C554        C  0.08341730  0.27341733  0.74952741     0.16000
O555        O  0.06901439  0.31713877  0.75148646    -0.26400
C556        C  0.03942167  0.28564148  0.75021224     0.05800
C557        C  0.04705960  0.25762472  0.74889964    -0.31200
O558        O  0.16922360  0.27414652  0.74912664    -0.23100
C559        C  0.19915697  0.30522791  0.75004650    -0.03100
C560        C  0.19239565  0.33382319  0.75139213    -0.17500
H561        H  0.14285059  0.36180216  0.75311493     0.20500
H562        H  0.09616908  0.23020313  0.74758118     0.18900
H563        H  0.02875327  0.22948616  0.74759374     0.18800
H564        H  0.21174838  0.36175597  0.75223087     0.14700
C565        C  0.79847706  0.11428371  0.74803611     0.30100
C566        C  0.81129083  0.15087181  0.74758060    -0.36200
C567        C  0.84862495  0.17195257  0.74897842     0.16100
C568        C  0.87183297  0.15804371  0.75046953     0.21900
C569        C  0.85896886  0.12133409  0.75089947    -0.34300
C570        C  0.82149963  0.10018703  0.74970539     0.16000
O571        O  0.76453250  0.08987589  0.74766956    -0.26400
C572        C  0.76552818  0.05956124  0.74926810     0.05800
C573        C  0.80042743  0.06435632  0.75046687    -0.31200
O574        O  0.90577764  0.18280227  0.75141277    -0.23100
C575        C  0.90420149  0.21290220  0.75059786    -0.03100
C576        C  0.86928946  0.20770460  0.74918711    -0.17500
H577        H  0.79336536  0.16210423  0.74647163     0.20500
H578        H  0.87688220  0.11008511  0.75226962     0.18900
H579        H  0.80929649  0.04472669  0.75209069     0.18800
H580        H  0.86058549  0.22750661  0.74814033     0.14700
C581        C  0.13008773  0.84838362  0.75038127     0.30100
C582        C  0.16785482  0.86733190  0.74957626    -0.36200
C583        C  0.18349591  0.90441040  0.75116699     0.16100
C584        C  0.16337779  0.92161956  0.75343744     0.21900
C585        C  0.12568265  0.90268932  0.75424489    -0.34300
C586        C  0.11007208  0.86567861  0.75254063     0.16000
O587        O  0.10982060  0.81362143  0.74916316    -0.26400
C588        C  0.07622509  0.80842143  0.75033914     0.05800
C589        C  0.07495060  0.84012412  0.75252586    -0.31200
O590        O  0.18343802  0.95637252  0.75433043    -0.23100
C591        C  0.21700813  0.96171231  0.75265791    -0.03100
C592        C  0.21860458  0.93019781  0.75063482    -0.17500
H593        H  0.18391576  0.85410308  0.74773872     0.20500
H594        H  0.10961520  0.91592039  0.75592679     0.18900
H595        H  0.05185529  0.84424081  0.75421223     0.18800
H596        H  0.24199113  0.92654374  0.74867548     0.14700
C597        C  0.89911577  0.74020919  0.73653564     0.30100
C598        C  0.87938559  0.75750503  0.72856625    -0.36200
C599        C  0.84254505  0.73862229  0.73526379     0.16100
C600        C  0.82572227  0.70485327  0.74880995     0.21900
C601        C  0.84558019  0.68714907  0.75635443    -0.34300
C602        C  0.88286319  0.70621646  0.74964301     0.16000
O603        O  0.93419423  0.75416550  0.73406398    -0.26400
C604        C  0.94109016  0.72892103  0.74542095     0.05800
C605        C  0.91009101  0.69822628  0.75529576    -0.31200
O606        O  0.79101458  0.69330368  0.75461034    -0.23100
C607        C  0.78595447  0.72030522  0.74472082    -0.03100
C608        C  0.81720329  0.74887972  0.73215219    -0.17500
H609        H  0.89209844  0.78431729  0.71872543     0.20500
H610        H  0.83309182  0.66085872  0.76744514     0.18900
H611        H  0.90807411  0.67422917  0.76628881     0.18800
H612        H  0.82115321  0.77409195  0.72258382     0.14700
C613        C  0.62829751  0.99183213  0.64546752     0.30100
C614        C  0.62306883  0.00830520  0.61650537    -0.36200
C615        C  0.58928564  0.99051126  0.60088866     0.16100
C616        C  0.56235877  0.95827329  0.61237558     0.21900
C617        C  0.56775052  0.94151538  0.64151959    -0.34300
C618        C  0.60170450  0.95977735  0.65768286     0.16000
O619        O  0.65720077  0.00535928  0.66496520    -0.26400
C620        C  0.64949794  0.98202301  0.69041286     0.05800
C621        C  0.61524514  0.95284726  0.68728001    -0.31200
O622        O  0.53226853  0.94747893  0.59431119    -0.23100
C623        C  0.54037188  0.97351262  0.57145793    -0.03100
C624        C  0.57542819  0.00077553  0.57441470    -0.17500
H625        H  0.64355126  0.03386571  0.60750793     0.20500
H626        H  0.54671677  0.91673327  0.65149567     0.18900
H627        H  0.60191193  0.93050379  0.70461441     0.18800
H628        H  0.58853410  0.02509979  0.55965570     0.14700
C629        C  0.57917638  0.99515251  0.89248960     0.30100
C630        C  0.61007358  0.01802832  0.87429850    -0.36200
C631        C  0.62159079  0.00235710  0.84942195     0.16100
C632        C  0.60408037  0.96655643  0.84244653     0.21900
C633        C  0.57287608  0.94337114  0.86093950    -0.34300
C634        C  0.56122800  0.95916457  0.88622800     0.16000
O635        O  0.56408005  0.00475285  0.91671607    -0.26400
C636        C  0.53592015  0.97472246  0.92657958     0.05800
C637        C  0.53262346  0.94523903  0.90857931    -0.31200
O638        O  0.62009313  0.95817682  0.81756000    -0.23100
C639        C  0.64822017  0.98915276  0.80899003    -0.03100
C640        C  0.65013089  0.01736665  0.82801789    -0.17500
H641        H  0.62421653  0.04625695  0.87922897     0.20500
H642        H  0.55872397  0.91515809  0.85597369     0.18900
H643        H  0.51222171  0.91783669  0.91143097     0.18800
H644        H  0.66948339  0.04523529  0.82624170     0.14700
C645        C  0.39182805  0.01658386  0.89725548     0.30100
C646        C  0.38627362  0.04253023  0.88081742    -0.36200
C647        C  0.36156939  0.03085083  0.85337961     0.16100
C648        C  0.34367999  0.99606913  0.84252015     0.19800
C649        C  0.34908247  0.96992476  0.85919583    -0.34300
C650        C  0.37367742  0.98158417  0.88699979     0.16000
O651        O  0.41440079  0.02208992  0.92292112    -0.26400
C652        C  0.41064137  0.99023993  0.92961118     0.05800
C653        C  0.38551763  0.96382926  0.90819281    -0.31200
O654        O  0.32209401  0.99135812  0.81591918    -0.23100
C655        C  0.32604148  0.02351138  0.80997596    -0.03100
C656        C  0.35036519  0.04907235  0.83254443    -0.17500
H657        H  0.40039247  0.06999068  0.88878954     0.20500
H658        H  0.33521394  0.94252478  0.85101186     0.18900
H659        H  0.37789732  0.93598650  0.90770726     0.18800
H660        H  0.35892352  0.07710554  0.83337186     0.14700
C661        C  0.37509262  0.98210513  0.61384734     0.30100
C662        C  0.34840035  0.96712429  0.63952453    -0.36200
C663        C  0.34038106  0.99087431  0.65746054     0.16100
C664        C  0.35701992  0.02664309  0.65018564     0.21900
C665        C  0.38354712  0.04152630  0.62469348    -0.34300
C666        C  0.39191137  0.01801144  0.60727968     0.16000
O667        O  0.38761837  0.96532352  0.59421800    -0.26400
C668        C  0.41294856  0.99110246  0.57523167     0.05800
C669        C  0.41668227  0.02428677  0.58240248    -0.31200
O670        O  0.34600179  0.04415350  0.67024567    -0.23100
C671        C  0.32218779  0.01947221  0.69108342    -0.03100
C672        C  0.31749938  0.98573995  0.68429774    -0.17500
H673        H  0.33528314  0.93918527  0.64545799     0.20500
H674        H  0.39712455  0.06954952  0.61921458     0.18900
H675        H  0.43502837  0.04945147  0.57084035     0.18800
H676        H  0.29996902  0.96111328  0.69723691     0.14700
C677        C  0.01702188  0.62138236  0.60619587     0.30100
C678        C  0.04032344  0.65319077  0.62287783    -0.36200
C679        C  0.02520929  0.66399999  0.64929012     0.16100
C680        C  0.98970142  0.64479838  0.65907273     0.21900
C681        C  0.96620744  0.61296270  0.64215689    -0.34300
C682        C  0.98127668  0.60228368  0.61534830     0.16000
O683        O  0.02572831  0.60639230  0.58095338    -0.26400
C684        C  0.99512024  0.57739546  0.57344595     0.05800
C685        C  0.96646767  0.57348026  0.59393820    -0.31200
O686        O  0.98162499  0.65997115  0.68480190    -0.23100
C687        C  0.01234596  0.68945889  0.69121817    -0.03100
C688        C  0.04030264  0.69315612  0.66985879    -0.17500
H689        H  0.06826142  0.66846201  0.61573898     0.20500
H690        H  0.93825047  0.59768374  0.64931372     0.18900
H691        H  0.93895848  0.55229765  0.59341365     0.18800
H692        H  0.06790948  0.71404231  0.66966002     0.14700
C693        C  0.01716905  0.62024920  0.89214030     0.30100
C694        C  0.04033259  0.65240144  0.87596757    -0.36200
C695        C  0.02512021  0.66331921  0.84950673     0.16100
C696        C  0.98975079  0.64380766  0.83910653     0.21900
C697        C  0.96650642  0.61154129  0.85534278    -0.34300
C698        C  0.98157500  0.60085467  0.88231297     0.16000
O699        O  0.02568711  0.60544561  0.91785586    -0.26400
C700        C  0.99507953  0.57631894  0.92496692     0.05800
C701        C  0.96666434  0.57206351  0.90370670    -0.31200
O702        O  0.98138721  0.65929174  0.81374234    -0.23100
C703        C  0.01173891  0.68933358  0.80820777    -0.03100
C704        C  0.03980730  0.69305599  0.82972842    -0.17500
H705        H  0.06809436  0.66799535  0.88374293     0.20500
H706        H  0.93863815  0.59612845  0.84780165     0.18900
H707        H  0.93920259  0.55082067  0.90390117     0.18800
H708        H  0.06720654  0.71433986  0.83055403     0.14700
C709        C  0.99746023  0.41635373  0.88661956     0.30100
C710        C  0.01575430  0.40880161  0.86046187    -0.36200
C711        C  0.99530583  0.37740553  0.84167096     0.16100
C712        C  0.95949725  0.35491070  0.84851166     0.21900
C713        C  0.94116679  0.36256139  0.87436959    -0.34300
C714        C  0.96145832  0.39403589  0.89282975     0.16000
O715        O  0.01115110  0.44424523  0.90732219    -0.26400
C716        C  0.98340837  0.43978702  0.92674612     0.05800
C717        C  0.95182936  0.40904203  0.91878578    -0.31200
O718        O  0.94567007  0.32676184  0.82840489    -0.23100
C719        C  0.97279229  0.33119127  0.80809337    -0.03100
C720        C  0.00438668  0.36239377  0.81504659    -0.17500
H721        H  0.04390004  0.42619235  0.85510538     0.20500
H722        H  0.91301303  0.34518240  0.87969096     0.18900
H723        H  0.92562915  0.39917306  0.93052136     0.18800
H724        H  0.03032079  0.37231505  0.80274653     0.14700
C725        C  0.99344997  0.37288950  0.65729859     0.30100
C726        C  0.01683498  0.40162666  0.63655516    -0.36200
C727        C  0.00042448  0.41474091  0.61333789     0.16100
C728        C  0.96361890  0.40074547  0.61091554     0.21900
C729        C  0.94031547  0.37208314  0.63154227    -0.34300
C730        C  0.95668009  0.35879983  0.65438988     0.16000
O731        O  0.00269590  0.35600805  0.68047554    -0.26400
C732        C  0.97133027  0.33052004  0.69207115     0.05800
C733        C  0.94189609  0.33115886  0.67678295    -0.31200
O734        O  0.95399065  0.41691516  0.58747609    -0.23100
C735        C  0.98500843  0.44160707  0.57454827    -0.03100
C736        C  0.01482694  0.44149264  0.58962516    -0.17500
H737        H  0.04568458  0.41275944  0.63817971     0.20500
H738        H  0.91146845  0.36071744  0.62966886     0.18900
H739        H  0.91365018  0.31383651  0.68159969     0.18800
H740        H  0.04293398  0.45858686  0.58390147     0.14700
C741        C  0.63521822  0.64549389  0.65153607     0.30100
C742        C  0.60896244  0.63871218  0.62637350    -0.36200
C743        C  0.59700730  0.60724411  0.60788712     0.16100
C744        C  0.61003896  0.58385553  0.61332928     0.21900
C745        C  0.63646388  0.59063870  0.63889995    -0.34300
C746        C  0.64834980  0.62231440  0.65781782     0.16000
O747        O  0.64961860  0.67337310  0.67174186    -0.26400
C748        C  0.67233743  0.66838513  0.69171665     0.05800
C749        C  0.67276269  0.63691983  0.68435171    -0.31200
O750        O  0.59468785  0.55602780  0.59247146    -0.23100
C751        C  0.57156019  0.56197735  0.57384733    -0.03100
C752        C  0.57194832  0.59337614  0.58249257    -0.17500
H753        H  0.59842554  0.65674426  0.62164526     0.20500
H754        H  0.64684548  0.57252715  0.64378602     0.18900
H755        H  0.68860482  0.62641512  0.69658075     0.18800
H756        H  0.55604779  0.60447260  0.57149644     0.14700
C757        C  0.64191466  0.64761217  0.85246360     0.30100
C758        C  0.61923438  0.64287699  0.88040342    -0.36200
C759        C  0.60474727  0.61008515  0.89693134     0.16100
C760        C  0.61215807  0.58354274  0.88707814     0.21900
C761        C  0.63501847  0.58831937  0.85874339    -0.34300
C762        C  0.64944242  0.62137749  0.84181200     0.16000
O763        O  0.65742525  0.67612874  0.83320996    -0.26400
C764        C  0.67535656  0.66862589  0.80950633     0.05800
C765        C  0.67137971  0.63472833  0.81342220    -0.31200
O766        O  0.59464511  0.55464364  0.90622406    -0.23100
C767        C  0.57573237  0.56309386  0.92815122    -0.03100
C768        C  0.58111986  0.59721557  0.92346211    -0.17500
H769        H  0.61287953  0.66327172  0.88838814     0.20500
H770        H  0.64071604  0.56764956  0.85023329     0.18900
H771        H  0.68253353  0.62173098  0.79761054     0.18800
H772        H  0.56888698  0.61045533  0.93734686     0.14700
C773        C  0.36616671  0.37005397  0.83895134     0.30100
C774        C  0.39839887  0.37623124  0.85539228    -0.36200
C775        C  0.41020043  0.40072457  0.88297575     0.16100
C776        C  0.39161111  0.41798817  0.89325007     0.21900
C777        C  0.35947058  0.41159764  0.87716353    -0.34300
C778        C  0.34768102  0.38713133  0.84996729     0.16000
O779        O  0.35003826  0.34854721  0.81247881    -0.26400
C780        C  0.32074231  0.35181578  0.80687777     0.05800
C781        C  0.31815882  0.37560195  0.82948518    -0.31200
O782        O  0.40766807  0.44058045  0.91861529    -0.23100
C783        C  0.43693322  0.43780368  0.92516709    -0.03100
C784        C  0.43995577  0.41323212  0.90393878    -0.17500
H785        H  0.41327950  0.36306018  0.84717399     0.20500
H786        H  0.34474850  0.42500713  0.88518212     0.18900
H787        H  0.29771912  0.38370996  0.83057985     0.18800
H788        H  0.46126465  0.40627809  0.90350863     0.14700
C789        C  0.36259064  0.36887110  0.65582892     0.30100
C790        C  0.39503537  0.37550610  0.64002716    -0.36200
C791        C  0.40687428  0.40012554  0.61265948     0.16100
C792        C  0.38815657  0.41717714  0.60186759     0.21900
C793        C  0.35560157  0.41024272  0.61731499    -0.34300
C794        C  0.34371008  0.38551817  0.64441388     0.16000
O795        O  0.34698039  0.34764335  0.68246773    -0.26400
C796        C  0.31754822  0.35052132  0.68795525     0.05800
C797        C  0.31420475  0.37372909  0.66489796    -0.31200
O798        O  0.40456469  0.44004695  0.57675666    -0.23100
C799        C  0.43408538  0.43749728  0.57100555    -0.03100
C800        C  0.43694592  0.41295291  0.59248802    -0.17500
H801        H  0.41017181  0.36268244  0.64870442     0.20500
H802        H  0.34076492  0.42351987  0.60902623     0.18900
H803        H  0.29356514  0.38158620  0.66381299     0.18800
H804        H  0.45836861  0.40617326  0.59356661     0.14700
loop_ 
_geom_bond_atom_site_label_1 
_geom_bond_atom_site_label_2 
_geom_bond_distance 
_geom_bond_site_symmetry_2 
_ccdc_geom_bond_type 
O1           Ni9   1.904   1_554  S
O1           C11   1.279       .  A
O2         Ni411   1.906       .  S
O2           C12   1.279       .  A
O3           Ni9   1.908   1_554  S
O3           C13   1.278       .  A
O4         Ni411   1.907       .  S
O4           C14   1.280       .  A
O5          Ni10   1.932       .  S
O5           C14   1.282       .  A
O6         Ni412   1.932   1_554  S
O6           C13   1.284       .  A
O7          Ni10   1.932       .  S
O7           C12   1.283       .  A
O8         Ni412   1.933   1_554  S
O8           C11   1.283       .  A
Ni9         O404   1.906       .  S
Ni9         O406   1.907       .  S
Ni9        Ni412   2.390       .  S
Ni10        O408   1.932       .  S
Ni10        O410   1.933       .  S
Ni10       Ni411   2.390       .  S
C11         C349   1.471       .  S
C12         C381   1.470       .  S
C13         C397   1.471       .  S
C14         C365   1.472       .  S
O15         Ni23   1.920   1_554  S
O15          C25   1.281   1_455  A
O16        Ni425   1.914       .  S
O16          C26   1.280   1_455  A
O17         Ni23   1.922   1_554  S
O17          C27   1.282   1_455  A
O18        Ni425   1.926       .  S
O18          C28   1.282   1_455  A
O19        Ni426   1.915       .  S
O19          C28   1.281       .  A
O20         Ni24   1.921   1_554  S
O20          C27   1.281       .  A
O21        Ni426   1.926       .  S
O21          C26   1.283       .  A
O22         Ni24   1.920   1_554  S
O22          C25   1.281       .  A
Ni23        O418   1.914       .  S
Ni23        O420   1.926       .  S
Ni23        Ni24   2.390   1_455  S
Ni24        O421   1.915       .  S
Ni24        O423   1.926       .  S
C25         C333   1.471       .  S
C26         C298   1.471       .  S
C27         C282   1.473       .  S
C28         C314   1.472       .  S
O29        Ni439   1.938       .  S
O29          C39   1.284       .  A
O30         Ni37   1.937       .  S
O30          C40   1.284       .  A
O31        Ni439   1.930       .  S
O31          C41   1.282       .  A
O32         Ni37   1.931       .  S
O32          C42   1.283       .  A
O33         Ni38   1.904       .  S
O33          C42   1.278   1_545  A
O34        Ni440   1.904       .  S
O34          C41   1.279   1_545  A
O35         Ni38   1.899       .  S
O35          C40   1.278   1_545  A
O36        Ni440   1.901       .  S
O36          C39   1.278   1_545  A
Ni37        O431   1.938       .  S
Ni37        O433   1.930       .  S
Ni37        Ni38   2.390   1_565  S
Ni38        O436   1.904       .  S
Ni38        O438   1.901       .  S
C39         C266   1.473       .  S
C40         C234   1.469       .  S
C41         C221   1.468       .  S
C42         C250   1.468       .  S
C43          C44   1.530       .  S
C43          C49   1.537       .  S
C43          C47   1.532       .  S
C43         C186   1.519       .  S
C44          H51   1.085       .  S
C44          C45   1.369       .  D
C45          C46   1.544   1_455  S
C45         C301   1.483       .  S
C46          C50   1.544       .  S
C46          C48   1.545   1_655  S
C46          H52   1.110       .  S
C47          H53   1.085       .  S
C47          C48   1.370       .  D
C48         C285   1.484       .  S
C49          H54   1.083       .  S
C49          C50   1.367   1_455  D
C50         C202   1.485       .  S
C55          C56   1.529       .  S
C55          C61   1.527       .  S
C55          C59   1.527       .  S
C55         C173   1.502       .  S
C56          H63   1.087       .  S
C56          C57   1.366       .  D
C57          C58   1.548       .  S
C57         C317   1.480       .  S
C58          C62   1.549   1_655  S
C58          C60   1.545       .  S
C58          H64   1.110   1_655  S
C59          H65   1.086       .  S
C59          C60   1.365       .  D
C60         C330   1.479       .  S
C61          H66   1.083       .  S
C61          C62   1.368   1_655  D
C62         C154   1.488       .  S
C67          C68   1.528       .  S
C67          C73   1.534       .  S
C67          C71   1.530       .  S
C67         C157   1.513       .  S
C68          H75   1.085       .  S
C68          C69   1.369       .  D
C69          C70   1.546       .  S
C69         C378   1.485       .  S
C70          C74   1.546       .  S
C70          C72   1.547       .  S
C70          H76   1.110       .  S
C71          H77   1.085       .  S
C71          C72   1.369       .  D
C72         C394   1.484       .  S
C73          H78   1.086       .  S
C73          C74   1.367       .  D
C74         C141   1.487       .  S
C79          C80   1.532       .  S
C79          C85   1.547       .  S
C79          C83   1.535       .  S
C79         C138   1.522       .  S
C80          H87   1.085       .  S
C80          C81   1.368       .  D
C81          C82   1.540       .  S
C81         C253   1.481       .  S
C82          C86   1.538   1_545  S
C82          C84   1.540       .  S
C82          H88   1.107   1_545  S
C83          H89   1.086       .  S
C83          C84   1.368       .  D
C84         C269   1.478       .  S
C85          H90   1.082       .  S
C85          C86   1.368   1_545  D
C86         C189   1.486       .  S
C91          C92   1.524       .  S
C91          C97   1.526   1_545  S
C91          C95   1.523       .  S
C91         C170   1.503       .  S
C92          H99   1.087       .  S
C92          C93   1.365   1_545  D
C93          C94   1.546       .  S
C93         C218   1.477       .  S
C94          C98   1.547       .  S
C94          C96   1.546       .  S
C94         H100   1.109       .  S
C95         H101   1.085       .  S
C95          C96   1.367   1_545  D
C96         C237   1.482       .  S
C97         H102   1.084       .  S
C97          C98   1.368       .  D
C98         C125   1.474       .  S
C103        C104   1.524       .  S
C103        C109   1.531       .  S
C103        C107   1.520       .  S
C103        C122   1.509       .  S
C104        H111   1.087       .  S
C104        C105   1.367       .  D
C105        C106   1.549       .  S
C105        C346   1.477       .  S
C106        C110   1.551       .  S
C106        C108   1.551       .  S
C106        H112   1.109       .  S
C107        H113   1.087       .  S
C107        C108   1.365       .  D
C108        C362   1.481       .  S
C109        H114   1.081       .  S
C109        C110   1.369       .  D
C110        C205   1.490       .  S
C115        C120   1.378       .  A
C115        C116   1.409       .  A
C115        O121   1.319       .  A
C116        C117   1.407       .  A
C116        H127   1.084       .  S
C117        C126   1.369       .  A
C117        C118   1.380       .  A
C118        C119   1.395       .  A
C118        O124   1.308       .  A
C119        C120   1.393       .  A
C119        H128   1.084       .  S
C120        C123   1.353       .  A
O121        C122   1.335       .  A
C122        C123   1.391       .  A
C123        H129   1.081       .  S
O124        C125   1.327       .  A
C125        C126   1.395       .  A
C126        H130   1.082       .  S
C131        C136   1.377       .  A
C131        C132   1.412       .  A
C131        O137   1.324       .  A
C132        C133   1.411       .  A
C132        H143   1.083       .  S
C133        C142   1.372       .  A
C133        C134   1.379       .  A
C134        C135   1.400       .  A
C134        O140   1.315       .  A
C135        C136   1.399       .  A
C135        H144   1.083       .  S
C136        C139   1.359       .  A
O137        C138   1.338       .  A
C138        C139   1.394       .  A
C139        H145   1.080       .  S
O140        C141   1.330       .  A
C141        C142   1.397       .  A
C142        H146   1.082       .  S
C147        C152   1.379       .  A
C147        C148   1.408       .  A
C147        O153   1.325       .  A
C148        C149   1.409       .  A
C148        H159   1.083       .  S
C149        C158   1.366       .  A
C149        C150   1.380       .  A
C150        C151   1.400       .  A
C150        O156   1.318       .  A
C151        C152   1.400       .  A
C151        H160   1.084       .  S
C152        C155   1.355       .  A
O153        C154   1.334       .  A
C154        C155   1.395       .  A
C155        H161   1.081       .  S
O156        C157   1.330       .  A
C157        C158   1.396       .  A
C158        H162   1.083       .  S
C163        C168   1.379       .  A
C163        C164   1.399       .  A
C163        O169   1.313       .  A
C164        C165   1.397       .  A
C164        H175   1.082       .  S
C165        C174   1.357       .  A
C165        C166   1.380       .  A
C166        C167   1.404       .  A
C166        O172   1.317       .  A
C167        C168   1.402       .  A
C167        H176   1.083       .  S
C168        C171   1.362       .  A
O169        C170   1.329       .  A
C170        C171   1.395       .  A
C171        H177   1.081       .  S
O172        C173   1.332       .  A
C173        C174   1.390       .  A
C174        H178   1.082       .  S
C179        C184   1.378       .  A
C179        C180   1.406       .  A
C179        O185   1.321       .  A
C180        C181   1.406       .  A
C180        H191   1.083       .  S
C181        C190   1.364       .  A
C181        C182   1.379       .  A
C182        C183   1.404       .  A
C182        O188   1.319       .  A
C183        C184   1.404       .  A
C183        H192   1.082       .  S
C184        C187   1.362       .  A
O185        C186   1.334       .  A
C186        C187   1.397       .  A
C187        H193   1.080       .  S
O188        C189   1.332       .  A
C189        C190   1.395       .  A
C190        H194   1.081       .  S
C195        C200   1.380       .  A
C195        C196   1.397       .  A
C195        O201   1.314       .  A
C196        C197   1.397       .  A
C196        H207   1.081       .  S
C197        C206   1.352       .  A
C197        C198   1.378       .  A
C198        C199   1.413       .  A
C198        O204   1.329       .  A
C199        C200   1.413       .  A
C199        H208   1.081       .  S
C200        C203   1.373       .  A
O201        C202   1.329       .  A
C202        C203   1.397       .  A
C203        H209   1.082       .  S
O204        C205   1.336       .  A
C205        C206   1.393       .  A
C206        H210   1.081       .  S
C211        C216   1.380       .  A
C211        C212   1.395   1_565  A
C211        O217   1.309   1_565  A
C212        C213   1.394   1_545  A
C212        H223   1.081       .  S
C213        C222   1.352   1_565  A
C213        C214   1.380       .  A
C214        C215   1.410       .  A
C214        O220   1.324       .  A
C215        C216   1.409       .  A
C215        H224   1.081       .  S
C216        C219   1.371       .  A
O217        C218   1.327   1_545  A
C218        C219   1.396       .  A
C219        H225   1.081       .  S
O220        C221   1.334       .  A
C221        C222   1.387   1_565  A
C222        H226   1.082       .  S
C227        C232   1.381       .  A
C227        C228   1.394   1_565  A
C227        O233   1.311   1_565  A
C228        C229   1.393       .  A
C228        H239   1.083       .  S
C229        C238   1.349       .  A
C229        C230   1.379   1_545  A
C230        C231   1.411       .  A
C230        O236   1.326       .  A
C231        C232   1.411       .  A
C231        H240   1.083       .  S
C232        C235   1.372       .  A
O233        C234   1.327   1_545  A
C234        C235   1.396       .  A
C235        H241   1.082       .  S
O236        C237   1.335       .  A
C237        C238   1.390   1_565  A
C238        H242   1.082       .  S
C243        C248   1.380   1_545  A
C243        C244   1.399       .  A
C243        O249   1.314       .  A
C244        C245   1.398       .  A
C244        H255   1.082       .  S
C245        C254   1.357       .  A
C245        C246   1.379   1_545  A
C246        C247   1.408       .  A
C246        O252   1.321       .  A
C247        C248   1.406       .  A
C247        H256   1.082       .  S
C248        C251   1.368       .  A
O249        C250   1.329   1_545  A
C250        C251   1.393       .  A
C251        H257   1.082       .  S
O252        C253   1.333   1_565  A
C253        C254   1.391       .  A
C254        H258   1.082       .  S
C259        C264   1.380   1_565  A
C259        C260   1.408       .  A
C259        O265   1.325       .  A
C260        C261   1.409       .  A
C260        H271   1.080       .  S
C261        C270   1.365       .  A
C261        C262   1.380   1_565  A
C262        C263   1.399       .  A
C262        O268   1.317       .  A
C263        C264   1.399       .  A
C263        H272   1.079       .  S
C264        C267   1.354       .  A
O265        C266   1.334       .  A
C266        C267   1.390   1_565  A
C267        H273   1.081       .  S
O268        C269   1.329       .  A
C269        C270   1.395   1_545  A
C270        H274   1.081       .  S
C275        C280   1.380   1_455  A
C275        C276   1.401       .  A
C275        O281   1.318       .  A
C276        C277   1.401       .  A
C276        H287   1.080       .  S
C277        C286   1.357       .  A
C277        C278   1.379   1_455  A
C278        C279   1.408       .  A
C278        O284   1.324       .  A
C279        C280   1.408       .  A
C279        H288   1.081       .  S
C280        C283   1.366       .  A
O281        C282   1.329   1_455  A
C282        C283   1.394       .  A
C283        H289   1.082       .  S
O284        C285   1.334   1_655  A
C285        C286   1.393       .  A
C286        H290   1.081       .  S
C291        C296   1.380   1_455  A
C291        C292   1.402       .  A
C291        O297   1.318       .  A
C292        C293   1.401       .  A
C292        H303   1.079       .  S
C293        C302   1.357       .  A
C293        C294   1.379   1_455  A
C294        C295   1.407       .  A
C294        O300   1.323       .  A
C295        C296   1.407       .  A
C295        H304   1.080       .  S
C296        C299   1.365       .  A
O297        C298   1.330   1_455  A
C298        C299   1.393       .  A
C299        H305   1.081       .  S
O300        C301   1.333   1_655  A
C301        C302   1.394       .  A
C302        H306   1.080       .  S
C307        C312   1.380       .  A
C307        C308   1.407   1_655  A
C307        O313   1.322   1_655  A
C308        C309   1.406   1_455  A
C308        H319   1.082       .  S
C309        C318   1.367   1_655  A
C309        C310   1.380       .  A
C310        C311   1.402       .  A
C310        O316   1.316       .  A
C311        C312   1.400       .  A
C311        H320   1.082       .  S
C312        C315   1.360       .  A
O313        C314   1.332   1_455  A
C314        C315   1.390       .  A
C315        H321   1.082       .  S
O316        C317   1.331       .  A
C317        C318   1.393   1_655  A
C318        H322   1.082       .  S
C323        C328   1.380       .  A
C323        C324   1.406   1_655  A
C323        O329   1.323   1_655  A
C324        C325   1.407       .  A
C324        H335   1.081       .  S
C325        C334   1.364       .  A
C325        C326   1.381   1_455  A
C326        C327   1.401       .  A
C326        O332   1.318       .  A
C327        C328   1.401       .  A
C327        H336   1.080       .  S
C328        C331   1.356       .  A
O329        C330   1.332   1_455  A
C330        C331   1.392       .  A
C331        H337   1.081       .  S
O332        C333   1.330       .  A
C333        C334   1.393   1_655  A
C334        H338   1.082       .  S
C339        C344   1.380       .  A
C339        C340   1.395       .  A
C339        O345   1.310       .  A
C340        C341   1.394       .  A
C340        H351   1.083       .  S
C341        C350   1.352       .  A
C341        C342   1.380       .  A
C342        C343   1.411       .  A
C342        O348   1.325       .  A
C343        C344   1.410       .  A
C343        H352   1.082       .  S
C344        C347   1.371       .  A
O345        C346   1.328       .  A
C346        C347   1.395       .  A
C347        H353   1.082       .  S
O348        C349   1.335       .  A
C349        C350   1.387       .  A
C350        H354   1.083       .  S
C355        C360   1.379       .  A
C355        C356   1.396       .  A
C355        O361   1.310       .  A
C356        C357   1.394       .  A
C356        H367   1.083       .  S
C357        C366   1.353       .  A
C357        C358   1.380       .  A
C358        C359   1.412       .  A
C358        O364   1.326       .  A
C359        C360   1.411       .  A
C359        H368   1.082       .  S
C360        C363   1.373       .  A
O361        C362   1.329       .  A
C362        C363   1.396       .  A
C363        H369   1.082       .  S
O364        C365   1.335       .  A
C365        C366   1.387       .  A
C366        H370   1.083       .  S
C371        C376   1.379       .  A
C371        C372   1.410       .  A
C371        O377   1.325       .  A
C372        C373   1.409       .  A
C372        H383   1.082       .  S
C373        C382   1.370       .  A
C373        C374   1.381       .  A
C374        C375   1.398       .  A
C374        O380   1.314       .  A
C375        C376   1.397       .  A
C375        H384   1.083       .  S
C376        C379   1.354       .  A
O377        C378   1.335       .  A
C378        C379   1.392       .  A
C379        H385   1.082       .  S
O380        C381   1.328       .  A
C381        C382   1.394       .  A
C382        H386   1.082       .  S
C387        C392   1.379       .  A
C387        C388   1.407       .  A
C387        O393   1.322       .  A
C388        C389   1.406       .  A
C388        H399   1.082       .  S
C389        C398   1.367       .  A
C389        C390   1.380       .  A
C390        C391   1.402       .  A
C390        O396   1.317       .  A
C391        C392   1.401       .  A
C391        H400   1.083       .  S
C392        C395   1.358       .  A
O393        C394   1.332       .  A
C394        C395   1.394       .  A
C395        H401   1.082       .  S
O396        C397   1.330       .  A
C397        C398   1.393       .  A
C398        H402   1.082       .  S
O403       Ni411   1.904       .  S
O403        C413   1.279       .  A
O404        C414   1.279       .  A
O405       Ni411   1.908       .  S
O405        C415   1.278       .  A
O406        C416   1.280       .  A
O407       Ni412   1.932       .  S
O407        C416   1.282       .  A
O408        C415   1.284       .  A
O409       Ni412   1.932       .  S
O409        C414   1.283       .  A
O410        C413   1.283       .  A
C413        C751   1.471       .  S
C414        C783   1.470       .  S
C415        C799   1.471       .  S
C416        C767   1.472       .  S
O417       Ni425   1.920       .  S
O417        C427   1.281   1_455  A
O418        C428   1.280   1_455  A
O419       Ni425   1.922       .  S
O419        C429   1.282   1_455  A
O420        C430   1.282   1_455  A
O421        C430   1.281       .  A
O422       Ni426   1.921       .  S
O422        C429   1.281       .  A
O423        C428   1.283       .  A
O424       Ni426   1.920       .  S
O424        C427   1.281       .  A
Ni425      Ni426   2.390   1_455  S
C427        C735   1.471       .  S
C428        C700   1.471       .  S
C429        C684   1.473       .  S
C430        C716   1.472       .  S
O431        C441   1.284       .  A
O432       Ni439   1.937   1_556  S
O432        C442   1.284       .  A
O433        C443   1.282       .  A
O434       Ni439   1.931   1_556  S
O434        C444   1.283       .  A
O435       Ni440   1.904   1_556  S
O435        C444   1.278   1_545  A
O436        C443   1.279   1_545  A
O437       Ni440   1.899   1_556  S
O437        C442   1.278   1_545  A
O438        C441   1.278   1_545  A
Ni439      Ni440   2.390   1_565  S
C441        C668   1.473       .  S
C442        C636   1.469       .  S
C443        C623   1.468       .  S
C444        C652   1.468       .  S
C445        C446   1.530       .  S
C445        C451   1.537       .  S
C445        C449   1.532       .  S
C445        C588   1.519       .  S
C446        H453   1.085       .  S
C446        C447   1.369       .  D
C447        C448   1.544   1_455  S
C447        C703   1.483       .  S
C448        C452   1.544       .  S
C448        C450   1.545   1_655  S
C448        H454   1.110       .  S
C449        H455   1.085       .  S
C449        C450   1.370       .  D
C450        C687   1.484       .  S
C451        H456   1.083       .  S
C451        C452   1.367   1_455  D
C452        C604   1.485       .  S
C457        C458   1.529       .  S
C457        C463   1.527       .  S
C457        C461   1.527       .  S
C457        C575   1.502       .  S
C458        H465   1.087       .  S
C458        C459   1.366       .  D
C459        C460   1.548       .  S
C459        C719   1.480       .  S
C460        C464   1.549   1_655  S
C460        C462   1.545       .  S
C460        H466   1.110   1_655  S
C461        H467   1.086       .  S
C461        C462   1.365       .  D
C462        C732   1.479       .  S
C463        H468   1.083       .  S
C463        C464   1.368   1_655  D
C464        C556   1.488       .  S
C469        C470   1.528       .  S
C469        C475   1.534       .  S
C469        C473   1.530       .  S
C469        C559   1.513       .  S
C470        H477   1.085       .  S
C470        C471   1.369       .  D
C471        C472   1.546       .  S
C471        C780   1.485       .  S
C472        C476   1.546       .  S
C472        C474   1.547       .  S
C472        H478   1.110       .  S
C473        H479   1.085       .  S
C473        C474   1.369       .  D
C474        C796   1.484       .  S
C475        H480   1.086       .  S
C475        C476   1.367       .  D
C476        C543   1.487       .  S
C481        C482   1.532       .  S
C481        C487   1.547       .  S
C481        C485   1.535       .  S
C481        C540   1.522       .  S
C482        H489   1.085       .  S
C482        C483   1.368       .  D
C483        C484   1.540       .  S
C483        C655   1.481       .  S
C484        C488   1.538   1_545  S
C484        C486   1.540       .  S
C484        H490   1.107   1_545  S
C485        H491   1.086       .  S
C485        C486   1.368       .  D
C486        C671   1.478       .  S
C487        H492   1.082       .  S
C487        C488   1.368   1_545  D
C488        C591   1.486       .  S
C493        C494   1.524       .  S
C493        C499   1.526   1_545  S
C493        C497   1.523       .  S
C493        C572   1.503       .  S
C494        H501   1.087       .  S
C494        C495   1.365   1_545  D
C495        C496   1.546       .  S
C495        C620   1.477       .  S
C496        C500   1.547       .  S
C496        C498   1.546       .  S
C496        H502   1.109       .  S
C497        H503   1.085       .  S
C497        C498   1.367   1_545  D
C498        C639   1.482       .  S
C499        H504   1.084       .  S
C499        C500   1.368       .  D
C500        C527   1.474       .  S
C505        C506   1.524       .  S
C505        C511   1.531       .  S
C505        C509   1.520       .  S
C505        C524   1.509       .  S
C506        H513   1.087       .  S
C506        C507   1.367       .  D
C507        C508   1.549       .  S
C507        C748   1.477       .  S
C508        C512   1.551       .  S
C508        C510   1.551       .  S
C508        H514   1.109       .  S
C509        H515   1.087       .  S
C509        C510   1.365       .  D
C510        C764   1.481       .  S
C511        H516   1.081       .  S
C511        C512   1.369       .  D
C512        C607   1.490       .  S
C517        C522   1.378       .  A
C517        C518   1.409       .  A
C517        O523   1.319       .  A
C518        C519   1.407       .  A
C518        H529   1.084       .  S
C519        C528   1.369       .  A
C519        C520   1.380       .  A
C520        C521   1.395       .  A
C520        O526   1.308       .  A
C521        C522   1.393       .  A
C521        H530   1.084       .  S
C522        C525   1.353       .  A
O523        C524   1.335       .  A
C524        C525   1.391       .  A
C525        H531   1.081       .  S
O526        C527   1.327       .  A
C527        C528   1.395       .  A
C528        H532   1.082       .  S
C533        C538   1.377       .  A
C533        C534   1.412       .  A
C533        O539   1.324       .  A
C534        C535   1.411       .  A
C534        H545   1.083       .  S
C535        C544   1.372       .  A
C535        C536   1.379       .  A
C536        C537   1.400       .  A
C536        O542   1.315       .  A
C537        C538   1.399       .  A
C537        H546   1.083       .  S
C538        C541   1.359       .  A
O539        C540   1.338       .  A
C540        C541   1.394       .  A
C541        H547   1.080       .  S
O542        C543   1.330       .  A
C543        C544   1.397       .  A
C544        H548   1.082       .  S
C549        C554   1.379       .  A
C549        C550   1.408       .  A
C549        O555   1.325       .  A
C550        C551   1.409       .  A
C550        H561   1.083       .  S
C551        C560   1.366       .  A
C551        C552   1.380       .  A
C552        C553   1.400       .  A
C552        O558   1.318       .  A
C553        C554   1.400       .  A
C553        H562   1.084       .  S
C554        C557   1.355       .  A
O555        C556   1.334       .  A
C556        C557   1.395       .  A
C557        H563   1.081       .  S
O558        C559   1.330       .  A
C559        C560   1.396       .  A
C560        H564   1.083       .  S
C565        C570   1.379       .  A
C565        C566   1.399       .  A
C565        O571   1.313       .  A
C566        C567   1.397       .  A
C566        H577   1.082       .  S
C567        C576   1.357       .  A
C567        C568   1.380       .  A
C568        C569   1.404       .  A
C568        O574   1.317       .  A
C569        C570   1.402       .  A
C569        H578   1.083       .  S
C570        C573   1.362       .  A
O571        C572   1.329       .  A
C572        C573   1.395       .  A
C573        H579   1.081       .  S
O574        C575   1.332       .  A
C575        C576   1.390       .  A
C576        H580   1.082       .  S
C581        C586   1.378       .  A
C581        C582   1.406       .  A
C581        O587   1.321       .  A
C582        C583   1.406       .  A
C582        H593   1.083       .  S
C583        C592   1.364       .  A
C583        C584   1.379       .  A
C584        C585   1.404       .  A
C584        O590   1.319       .  A
C585        C586   1.404       .  A
C585        H594   1.082       .  S
C586        C589   1.362       .  A
O587        C588   1.334       .  A
C588        C589   1.397       .  A
C589        H595   1.080       .  S
O590        C591   1.332       .  A
C591        C592   1.395       .  A
C592        H596   1.081       .  S
C597        C602   1.380       .  A
C597        C598   1.397       .  A
C597        O603   1.314       .  A
C598        C599   1.397       .  A
C598        H609   1.081       .  S
C599        C608   1.352       .  A
C599        C600   1.378       .  A
C600        C601   1.413       .  A
C600        O606   1.329       .  A
C601        C602   1.413       .  A
C601        H610   1.081       .  S
C602        C605   1.373       .  A
O603        C604   1.329       .  A
C604        C605   1.397       .  A
C605        H611   1.082       .  S
O606        C607   1.336       .  A
C607        C608   1.393       .  A
C608        H612   1.081       .  S
C613        C618   1.380       .  A
C613        C614   1.395   1_565  A
C613        O619   1.309   1_565  A
C614        C615   1.394   1_545  A
C614        H625   1.081       .  S
C615        C624   1.352   1_565  A
C615        C616   1.380       .  A
C616        C617   1.410       .  A
C616        O622   1.324       .  A
C617        C618   1.409       .  A
C617        H626   1.081       .  S
C618        C621   1.371       .  A
O619        C620   1.327   1_545  A
C620        C621   1.396       .  A
C621        H627   1.081       .  S
O622        C623   1.334       .  A
C623        C624   1.387   1_565  A
C624        H628   1.082       .  S
C629        C634   1.381       .  A
C629        C630   1.394   1_565  A
C629        O635   1.311   1_565  A
C630        C631   1.393       .  A
C630        H641   1.083       .  S
C631        C640   1.349       .  A
C631        C632   1.379   1_545  A
C632        C633   1.411       .  A
C632        O638   1.326       .  A
C633        C634   1.411       .  A
C633        H642   1.083       .  S
C634        C637   1.372       .  A
O635        C636   1.327   1_545  A
C636        C637   1.396       .  A
C637        H643   1.082       .  S
O638        C639   1.335       .  A
C639        C640   1.390   1_565  A
C640        H644   1.082       .  S
C645        C650   1.380   1_545  A
C645        C646   1.399       .  A
C645        O651   1.314       .  A
C646        C647   1.398       .  A
C646        H657   1.082       .  S
C647        C656   1.357       .  A
C647        C648   1.379   1_545  A
C648        C649   1.408       .  A
C648        O654   1.321       .  A
C649        C650   1.406       .  A
C649        H658   1.082       .  S
C650        C653   1.368       .  A
O651        C652   1.329   1_545  A
C652        C653   1.393       .  A
C653        H659   1.082       .  S
O654        C655   1.333   1_565  A
C655        C656   1.391       .  A
C656        H660   1.082       .  S
C661        C666   1.380   1_565  A
C661        C662   1.408       .  A
C661        O667   1.325       .  A
C662        C663   1.409       .  A
C662        H673   1.080       .  S
C663        C672   1.365       .  A
C663        C664   1.380   1_565  A
C664        C665   1.399       .  A
C664        O670   1.317       .  A
C665        C666   1.399       .  A
C665        H674   1.079       .  S
C666        C669   1.354       .  A
O667        C668   1.334       .  A
C668        C669   1.390   1_565  A
C669        H675   1.081       .  S
O670        C671   1.329       .  A
C671        C672   1.395   1_545  A
C672        H676   1.081       .  S
C677        C682   1.380   1_455  A
C677        C678   1.401       .  A
C677        O683   1.318       .  A
C678        C679   1.401       .  A
C678        H689   1.080       .  S
C679        C688   1.357       .  A
C679        C680   1.379   1_455  A
C680        C681   1.408       .  A
C680        O686   1.324       .  A
C681        C682   1.408       .  A
C681        H690   1.081       .  S
C682        C685   1.366       .  A
O683        C684   1.329   1_455  A
C684        C685   1.394       .  A
C685        H691   1.082       .  S
O686        C687   1.334   1_655  A
C687        C688   1.393       .  A
C688        H692   1.081       .  S
C693        C698   1.380   1_455  A
C693        C694   1.402       .  A
C693        O699   1.318       .  A
C694        C695   1.401       .  A
C694        H705   1.079       .  S
C695        C704   1.357       .  A
C695        C696   1.379   1_455  A
C696        C697   1.407       .  A
C696        O702   1.323       .  A
C697        C698   1.407       .  A
C697        H706   1.080       .  S
C698        C701   1.365       .  A
O699        C700   1.330   1_455  A
C700        C701   1.393       .  A
C701        H707   1.081       .  S
O702        C703   1.333   1_655  A
C703        C704   1.394       .  A
C704        H708   1.080       .  S
C709        C714   1.380       .  A
C709        C710   1.407   1_655  A
C709        O715   1.322   1_655  A
C710        C711   1.406   1_455  A
C710        H721   1.082       .  S
C711        C720   1.367   1_655  A
C711        C712   1.380       .  A
C712        C713   1.402       .  A
C712        O718   1.316       .  A
C713        C714   1.400       .  A
C713        H722   1.082       .  S
C714        C717   1.360       .  A
O715        C716   1.332   1_455  A
C716        C717   1.390       .  A
C717        H723   1.082       .  S
O718        C719   1.331       .  A
C719        C720   1.393   1_655  A
C720        H724   1.082       .  S
C725        C730   1.380       .  A
C725        C726   1.406   1_655  A
C725        O731   1.323   1_655  A
C726        C727   1.407       .  A
C726        H737   1.081       .  S
C727        C736   1.364       .  A
C727        C728   1.381   1_455  A
C728        C729   1.401       .  A
C728        O734   1.318       .  A
C729        C730   1.401       .  A
C729        H738   1.080       .  S
C730        C733   1.356       .  A
O731        C732   1.332   1_455  A
C732        C733   1.392       .  A
C733        H739   1.081       .  S
O734        C735   1.330       .  A
C735        C736   1.393   1_655  A
C736        H740   1.082       .  S
C741        C746   1.380       .  A
C741        C742   1.395       .  A
C741        O747   1.310       .  A
C742        C743   1.394       .  A
C742        H753   1.083       .  S
C743        C752   1.352       .  A
C743        C744   1.380       .  A
C744        C745   1.411       .  A
C744        O750   1.325       .  A
C745        C746   1.410       .  A
C745        H754   1.082       .  S
C746        C749   1.371       .  A
O747        C748   1.328       .  A
C748        C749   1.395       .  A
C749        H755   1.082       .  S
O750        C751   1.335       .  A
C751        C752   1.387       .  A
C752        H756   1.083       .  S
C757        C762   1.379       .  A
C757        C758   1.396       .  A
C757        O763   1.310       .  A
C758        C759   1.394       .  A
C758        H769   1.083       .  S
C759        C768   1.353       .  A
C759        C760   1.380       .  A
C760        C761   1.412       .  A
C760        O766   1.326       .  A
C761        C762   1.411       .  A
C761        H770   1.082       .  S
C762        C765   1.373       .  A
O763        C764   1.329       .  A
C764        C765   1.396       .  A
C765        H771   1.082       .  S
O766        C767   1.335       .  A
C767        C768   1.387       .  A
C768        H772   1.083       .  S
C773        C778   1.379       .  A
C773        C774   1.410       .  A
C773        O779   1.325       .  A
C774        C775   1.409       .  A
C774        H785   1.082       .  S
C775        C784   1.370       .  A
C775        C776   1.381       .  A
C776        C777   1.398       .  A
C776        O782   1.314       .  A
C777        C778   1.397       .  A
C777        H786   1.083       .  S
C778        C781   1.354       .  A
O779        C780   1.335       .  A
C780        C781   1.392       .  A
C781        H787   1.082       .  S
O782        C783   1.328       .  A
C783        C784   1.394       .  A
C784        H788   1.082       .  S
C789        C794   1.379       .  A
C789        C790   1.407       .  A
C789        O795   1.322       .  A
C790        C791   1.406       .  A
C790        H801   1.082       .  S
C791        C800   1.367       .  A
C791        C792   1.380       .  A
C792        C793   1.402       .  A
C792        O798   1.317       .  A
C793        C794   1.401       .  A
C793        H802   1.083       .  S
C794        C797   1.358       .  A
O795        C796   1.332       .  A
C796        C797   1.394       .  A
C797        H803   1.082       .  S
O798        C799   1.330       .  A
C799        C800   1.393       .  A
C800        H804   1.082       .  S
