geometry optimzed in LAMMPS
_audit_creation_date              2020-11-30 
_audit_creation_method            'lammps2cif' 
_symmetry_space_group_name_H-M    'P1' 
_symmetry_Int_Tables_number       1 
_symmetry_cell_setting            triclinic 
loop_ 
_symmetry_equiv_pos_as_xyz 
  x,y,z 
_cell_length_a                    36.63909547 
_cell_length_b                    40.23908674409803 
_cell_length_c                    36.27194852563416 
_cell_angle_alpha                 89.99913523151174 
_cell_angle_beta                  90.00487891504912 
_cell_angle_gamma                 90.00268239753848 
loop_ 
_atom_site_label 
_atom_site_type_symbol 
_atom_site_fract_x 
_atom_site_fract_y 
_atom_site_fract_z 
_atom_site_charge 
C1          C  0.95698782  0.06158785  0.10927221     0.05600
C2          C  0.96839711  0.08639806  0.13427001    -0.10500
C3          C  0.00576270  0.08924876  0.14316621     0.03100
C4          C  0.03103363  0.06744407  0.12766809    -0.09100
C5          C  0.02015626  0.04400158  0.10181416     0.05600
C6          C  0.98316739  0.04066700  0.09293993    -0.08500
H7          H  0.94883273  0.10399808  0.14534717     0.11200
H8          H  0.05992269  0.07092566  0.13300299     0.08700
H9          H  0.97502424  0.02317861  0.07178782     0.08600
O10         O  0.79107792  0.43163841  0.07234100    -0.76000
C11         C  0.77809785  0.39128714  0.95204313     0.85000
O12         O  0.90343918  0.43801110  0.99631171    -0.77100
O13         O  0.84441841  0.47698032  0.40902283    -0.78600
O14         O  0.76156228  0.03361046  0.98879738    -0.78400
O15         O  0.77013923  0.48397459  0.07372951    -0.77000
Zn16       Zn  0.81395105  0.42442246  0.02038565     1.55700
O17         O  0.76323917  0.00471145  0.43584181    -0.78400
Cd18       Cd  0.79517590  0.00514734  0.02619584     1.59700
Cd19       Cd  0.87093926  0.47917977  0.99370820     1.59600
O20         O  0.83598737  0.03537062  0.05149457    -0.78400
O21         O  0.81835500  0.46792972  0.99696953    -1.88900
Cd22       Cd  0.80107092  0.46616842  0.44474677     1.59900
O23         O  0.88694565  0.50851012  0.03620089    -0.78400
O24         O  0.78256217  0.41754978  0.43249714    -0.77000
C25         C  0.89694339  0.41089097  0.01278475     0.85500
C26         C  0.77497822  0.45558207  0.08926811     0.85200
O27         O  0.78571400  0.39106659  0.98658688    -0.76000
C28         C  0.75253597  0.02989765  0.95464077     0.86000
O29         O  0.86527787  0.40379845  0.02537764    -0.76100
C30         C  0.87038383  0.03052409  0.05471982     0.86100
C31         C  0.87348175  0.49387088  0.41405624     0.86400
O32         O  0.88404967  0.50267560  0.44582989    -0.78500
C33         C  0.76358331  0.32722752  0.37871161     0.82700
N34         N  0.77284099  0.35580901  0.39664357    -0.75600
C35         C  0.76571186  0.36002139  0.43331029     0.85100
N36         N  0.74882820  0.33497153  0.45235205    -0.75600
C37         C  0.73875660  0.30621162  0.43487387     0.85200
N38         N  0.74651978  0.30257256  0.39810167    -0.77300
C39         C  0.01253367  0.31148632  0.08064224     0.05600
C40         C  0.00111594  0.33629301  0.05564123    -0.10500
C41         C  0.96374572  0.33914434  0.04675697     0.03100
C42         C  0.93848039  0.31733810  0.06226666    -0.09100
C43         C  0.94936637  0.29390148  0.08812431     0.05600
C44         C  0.98635749  0.29056743  0.09698527    -0.08500
H45         H  0.02067787  0.35389569  0.04455801     0.11200
H46         H  0.90958907  0.32082033  0.05694577     0.08700
H47         H  0.99450483  0.27308556  0.11814235     0.08600
O48         O  0.17849704  0.18163325  0.11759341    -0.76000
C49         C  0.19142135  0.14126434  0.23787791     0.85000
O50         O  0.06616636  0.18800019  0.19376708    -0.77100
O51         O  0.12516604  0.22695913  0.28089734    -0.78600
O52         O  0.20804635  0.28360329  0.20116488    -0.78400
O53         O  0.19940690  0.23398224  0.11619969    -0.77000
Zn54       Zn  0.15559168  0.17442088  0.16953380     1.55700
O55         O  0.20638546  0.25469557  0.25411596    -0.78400
Cd56       Cd  0.17439531  0.25515682  0.16375548     1.59700
Cd57       Cd  0.09867307  0.22916317  0.19624982     1.59600
O58         O  0.13354087  0.28536962  0.13848968    -0.78400
O59         O  0.15124663  0.21792025  0.19296982    -1.88900
Cd60       Cd  0.16852967  0.21615950  0.24519135     1.59900
O61         O  0.08262345  0.25840418  0.15370172    -0.78400
O62         O  0.18700692  0.16753372  0.25742216    -0.77000
C63         C  0.07260595  0.16092225  0.17719225     0.85500
C64         C  0.19459227  0.20558181  0.10066702     0.85200
O65         O  0.18377667  0.14104137  0.20334039    -0.76000
C66         C  0.21709542  0.27988226  0.23531710     0.86000
O67         O  0.10423932  0.15384660  0.16450729    -0.76100
C68         C  0.09915688  0.28046083  0.13521753     0.86100
C69         C  0.09613844  0.24389651  0.27585581     0.86400
O70         O  0.08561711  0.25274471  0.24408210    -0.78500
C71         C  0.20596166  0.07722074  0.31121553     0.82700
N72         N  0.19669746  0.10579862  0.29328231    -0.75600
C73         C  0.20379235  0.10999715  0.25660733     0.85100
N74         N  0.22064645  0.08493944  0.23755867    -0.75600
C75         C  0.23072517  0.05618424  0.25503759     0.85200
N76         N  0.22299797  0.05255646  0.29181865    -0.77300
C77         C  0.95701397  0.21629938  0.35925899     0.05600
C78         C  0.96840876  0.19149458  0.38427076    -0.10500
C79         C  0.00577372  0.18862688  0.39316475     0.03100
C80         C  0.03105788  0.21041533  0.37765363    -0.09100
C81         C  0.02019230  0.23385367  0.35178874     0.05600
C82         C  0.98320576  0.23720157  0.34291515    -0.08500
H83         H  0.94883190  0.17390653  0.39535791     0.11200
H84         H  0.05994371  0.20692210  0.38298564     0.08700
H85         H  0.97507315  0.25468463  0.32175444     0.08600
O86         O  0.78589407  0.38681573  0.23661127    -0.76000
C87         C  0.77497755  0.32226475  0.33924938     0.85000
O88         O  0.90343482  0.33981910  0.24610997    -0.77100
O89         O  0.83602927  0.24246868  0.30141396    -0.78600
O90         O  0.76322320  0.27315032  0.18578396    -0.78400
O91         O  0.78262181  0.36032908  0.18252675    -0.77000
Zn92       Zn  0.81403893  0.35341198  0.27041271     1.55700
O93         O  0.76155992  0.24423981  0.23873266    -0.78400
Cd94       Cd  0.80107659  0.31169101  0.19473241     1.59700
Cd95       Cd  0.87091229  0.29866380  0.24366680     1.59600
O96         O  0.84444483  0.30088550  0.15903402    -0.78400
O97         O  0.81834810  0.30992141  0.24695526    -1.88900
Cd98       Cd  0.79518560  0.27268980  0.27615743     1.59900
O99         O  0.88393915  0.27503882  0.19585397    -0.78400
O100        O  0.77016215  0.29386628  0.32371082    -0.77000
C101        C  0.89702264  0.36687836  0.26273344     0.85500
C102        C  0.77823452  0.38659894  0.20207752     0.85200
O103        O  0.79109768  0.34620705  0.32233677    -0.76000
C104        C  0.75251968  0.24795759  0.20457816     0.86000
O105        O  0.86540524  0.37394802  0.27546242    -0.76100
C106        C  0.87344346  0.28390787  0.16407925     0.86100
C107        C  0.87041138  0.24737687  0.30469822     0.86400
O108        O  0.88695173  0.26944002  0.28622987    -0.78500
C109        C  0.76364786  0.45063609  0.12874818     0.82700
N110        N  0.77293357  0.42206429  0.14667973    -0.75600
C111        C  0.76586567  0.41787028  0.18335991     0.85100
N112        N  0.74901507  0.44292526  0.20241645    -0.75600
C113        C  0.73891451  0.47167420  0.18493816     0.86000
N114        N  0.74661702  0.47529840  0.14815171    -0.77300
C115        C  0.01259128  0.46625112  0.33065646     0.05600
C116        C  0.98639741  0.48715912  0.34698385    -0.10500
C117        C  0.94941099  0.48379921  0.33811447     0.03100
C118        C  0.93855006  0.46034271  0.31226793    -0.09100
C119        C  0.96383959  0.43855449  0.29676955     0.05600
C120        C  0.00120219  0.44143066  0.30566345    -0.08500
H121        H  0.99452946  0.00465849  0.36813158     0.11200
H122        H  0.90966564  0.45684117  0.30693567     0.08700
H123        H  0.02078022  0.42384255  0.29458846     0.08600
O124        O  0.18375031  0.13679481  0.45333299    -0.76000
C125        C  0.19459562  0.07226836  0.35068595     0.85000
O126        O  0.06610604  0.08981033  0.44371540    -0.77100
O127        O  0.13356892  0.99249062  0.38845179    -0.78600
O128        O  0.20629143  0.02312783  0.50412366    -0.78400
O129        O  0.18697392  0.11030870  0.50741885    -0.77000
Zn130      Zn  0.15555494  0.10341391  0.41953675     1.55700
O131        O  0.20795843  0.49422243  0.45117240    -0.78400
Cd132      Cd  0.16847425  0.06168401  0.49519653     1.59700
Cd133      Cd  0.09862313  0.04864996  0.44625775     1.59600
O134        O  0.12512050  0.05088570  0.53091726    -0.78400
O135        O  0.15119548  0.05991614  0.44297478    -1.88900
Cd136      Cd  0.17437904  0.02270183  0.41375728     1.59900
O137        O  0.08556174  0.02509825  0.49411333    -0.78400
O138        O  0.19943643  0.04387843  0.36623176    -0.77000
C139        C  0.07256380  0.11690528  0.42717614     0.85500
C140        C  0.19139757  0.13657526  0.48786951     0.85200
O141        O  0.17846707  0.09620506  0.36759733    -0.76000
C142        C  0.21698019  0.49793225  0.48533063     0.86000
O143        O  0.10420759  0.12399044  0.41452230    -0.76100
C144        C  0.09609231  0.03394495  0.52588451     0.86100
C145        C  0.09917446  0.99734153  0.38522138     0.86400
O146        O  0.08261059  0.01935296  0.40374209    -0.78500
C147        C  0.20595461  0.20062577  0.06119559     0.82700
N148        N  0.22301247  0.22527967  0.04179964    -0.75600
C149        C  0.23075271  0.22164448  0.50502212     0.85100
N150        N  0.22066153  0.19289089  0.48754402    -0.75600
C151        C  0.20378188  0.16784331  0.50659247     0.85200
N152        N  0.19667779  0.17205023  0.04326427    -0.77300
C153        C  0.51256588  0.31165238  0.10916940     0.05600
C154        C  0.50118400  0.33652135  0.13410424    -0.10500
C155        C  0.46382349  0.33941220  0.14299625     0.03100
C156        C  0.43853108  0.31759181  0.12755058    -0.09100
C157        C  0.44938885  0.29407923  0.10176787     0.05600
C158        C  0.48637094  0.29070470  0.09290250    -0.08500
H159        H  0.52076531  0.35413137  0.14513553     0.11200
H160        H  0.40964472  0.32110186  0.13287514     0.08700
H161        H  0.49449662  0.27316443  0.07179972     0.08600
O162        O  0.68370354  0.14102726  0.98661665    -0.76000
C163        C  0.69449880  0.20559730  0.08926420     0.85000
O164        O  0.56609227  0.18800124  0.99605818    -0.77100
O165        O  0.63350363  0.28538808  0.05133878    -0.78600
O166        O  0.70627153  0.25471116  0.43576215    -0.78400
O167        O  0.68698126  0.16751637  0.43253376    -0.77000
Zn168      Zn  0.65549667  0.17441369  0.02039387     1.55700
O169        O  0.70794487  0.28361518  0.98871212    -0.78400
Cd170      Cd  0.66846972  0.21613645  0.44472456     1.59700
Cd171      Cd  0.59861974  0.22916058  0.99363628     1.59600
O172        O  0.62509892  0.22689865  0.40901808    -0.78400
O173        O  0.65118452  0.21790510  0.99693750    -1.88900
Cd174      Cd  0.67433873  0.25514919  0.02612970     1.59900
O175        O  0.58562225  0.25278806  0.44581329    -0.78400
O176        O  0.69933244  0.23398891  0.07371416    -0.77000
C177        C  0.57250894  0.16092273  0.01264484     0.85500
C178        C  0.69138248  0.14124972  0.95208758     0.85200
O179        O  0.67838850  0.18164897  0.07234748    -0.76000
C180        C  0.71696623  0.27990815  0.95455378     0.86000
O181        O  0.60412855  0.15384666  0.02537297    -0.76100
C182        C  0.59611197  0.24389390  0.41404705     0.86100
C183        C  0.59912414  0.28048297  0.05462823     0.86400
O184        O  0.58257912  0.25840190  0.03618668    -0.78500
C185        C  0.70601705  0.07722151  0.37876009     0.82700
N186        N  0.72304959  0.05256429  0.39816944    -0.75600
C187        C  0.73074641  0.05618898  0.43495687     0.85100
N188        N  0.72063769  0.08493504  0.45243456    -0.75600
C189        C  0.70378141  0.10998661  0.43337260     0.85200
N190        N  0.69671963  0.10579077  0.39668919    -0.77300
C191        C  0.45687264  0.06168226  0.08065839     0.05600
C192        C  0.48306033  0.04081186  0.09706496    -0.10500
C193        C  0.52005146  0.04414078  0.08819894     0.03100
C194        C  0.53092533  0.06753518  0.06229071    -0.09100
C195        C  0.50564837  0.08929528  0.04671878     0.05600
C196        C  0.46827913  0.08644350  0.05559847    -0.08500
H197        H  0.47491725  0.02335683  0.11825339     0.11200
H198        H  0.55981188  0.07101245  0.05695655     0.08700
H199        H  0.44870764  0.10400696  0.04445647     0.08600
O200        O  0.28591622  0.39103619  0.20330835    -0.76000
C201        C  0.27488633  0.45557255  0.10067131     0.85000
O202        O  0.40345287  0.43818280  0.19363527    -0.77100
O203        O  0.33586218  0.03542245  0.13839578    -0.78600
O204        O  0.26324070  0.00470563  0.25414320    -0.78400
O205        O  0.28263763  0.41751899  0.25739094    -0.77000
Zn206      Zn  0.31401312  0.42447537  0.16949709     1.55700
O207        O  0.26150277  0.03360268  0.20118369    -0.78400
Cd208      Cd  0.30108547  0.46616874  0.24518058     1.59700
Cd209      Cd  0.37087972  0.47930081  0.19621423     1.59600
O210        O  0.34448520  0.47694858  0.28087073    -0.78400
O211        O  0.31832141  0.46797403  0.19294355    -1.88900
Cd212      Cd  0.29508924  0.00517029  0.16372947     1.59900
O213        O  0.38394776  0.50285011  0.24406874    -0.78400
O214        O  0.27002733  0.48396231  0.11621241    -0.77000
C215        C  0.39702825  0.41110503  0.17704881     0.85500
C216        C  0.27826160  0.39124468  0.23784227     0.85200
O217        O  0.29104534  0.43165221  0.11758179    -0.76000
C218        C  0.25251054  0.02988973  0.23534982     0.86000
O219        O  0.36538782  0.40399302  0.16440296    -0.76100
C220        C  0.37348987  0.49392245  0.27583417     0.86100
C221        C  0.37026371  0.03060288  0.13516999     0.86400
O222        O  0.38684914  0.50861215  0.15370211    -0.78500
C223        C  0.26373426  0.32717994  0.31116692     0.82700
N224        N  0.24667004  0.30252786  0.29177032    -0.75600
C225        C  0.23892712  0.30616318  0.25499118     0.85100
N226        N  0.24902286  0.33491538  0.23751248    -0.75600
C227        C  0.26590909  0.35996148  0.25656054     0.85200
N228        N  0.27301412  0.35575438  0.29323417    -0.77300
C229        C  0.45701497  0.21621156  0.33073257     0.05600
C230        C  0.46841292  0.19134664  0.30579860    -0.10500
C231        C  0.50577562  0.18847447  0.29690410     0.03100
C232        C  0.53105428  0.21031019  0.31234466    -0.09100
C233        C  0.52018398  0.23381113  0.33813438     0.05600
C234        C  0.48319999  0.23716950  0.34699997    -0.08500
H235        H  0.44884104  0.17372216  0.29477078     0.11200
H236        H  0.55994047  0.20681396  0.30702098     0.08700
H237        H  0.47506631  0.25470248  0.36810783     0.08600
O238        O  0.29115475  0.34618903  0.36758414    -0.76000
C239        C  0.27811309  0.38656622  0.48787144     0.85000
O240        O  0.40344994  0.33986348  0.44380719    -0.77100
O241        O  0.34443995  0.30090910  0.53090513    -0.78600
O242        O  0.26158655  0.24422579  0.45118758    -0.78400
O243        O  0.27024310  0.29383895  0.36619323    -0.77000
Zn244      Zn  0.31401076  0.35343000  0.41955285     1.55700
O245        O  0.26326010  0.27312753  0.50413948    -0.78400
Cd246      Cd  0.29522103  0.27268116  0.41378370     1.59700
Cd247      Cd  0.37094031  0.29869182  0.44626719     1.59600
O248        O  0.33606373  0.24244023  0.38857542    -0.78400
O249        O  0.31836455  0.30992975  0.44298566    -1.88900
Cd250      Cd  0.30107424  0.31168937  0.49519960     1.59900
O251        O  0.38698280  0.26943468  0.40372655    -0.78400
O252        O  0.28255249  0.36030250  0.50742115    -0.77000
C253        C  0.39699880  0.36696124  0.42727212     0.85500
C254        C  0.27507278  0.32223411  0.35065140     0.85200
O255        O  0.28576507  0.38679122  0.45333597    -0.76000
C256        C  0.25255685  0.24793719  0.48534342     0.86000
O257        O  0.36536037  0.37403925  0.41459347    -0.76100
C258        C  0.37044332  0.24734967  0.38528548     0.86100
C259        C  0.37345358  0.28395272  0.52587138     0.86400
O260        O  0.38397054  0.27509419  0.49410146    -0.78500
C261        C  0.26351519  0.45060363  0.06120348     0.82700
N262        N  0.24647478  0.47526024  0.04179932    -0.75600
C263        C  0.23875503  0.47163018  0.50501720     0.85100
N264        N  0.24884654  0.44287816  0.48754022    -0.75600
C265        C  0.26570947  0.41782613  0.50659606     0.85200
N266        N  0.27279604  0.42202876  0.04327430    -0.77300
C267        C  0.51267828  0.46618168  0.35926765     0.05600
C268        C  0.48650956  0.48706979  0.34285672    -0.10500
C269        C  0.44951392  0.48376482  0.35171725     0.03100
C270        C  0.43861615  0.46037658  0.37762192    -0.09100
C271        C  0.46387137  0.43859884  0.39319772     0.05600
C272        C  0.50124574  0.44142719  0.38432546    -0.08500
H273        H  0.49466889  0.00451767  0.32167159     0.11200
H274        H  0.40972417  0.45691751  0.38294965     0.08700
H275        H  0.52080045  0.42385108  0.39547096     0.08600
O276        O  0.67854582  0.09618796  0.32235809    -0.76000
C277        C  0.69139019  0.13657585  0.20207284     0.85000
O278        O  0.56614289  0.08966778  0.24637769    -0.77100
O279        O  0.62512274  0.05088957  0.15906024    -0.78600
O280        O  0.70811698  0.49424307  0.23878883    -0.78400
O281        O  0.69953799  0.04386965  0.32374709    -0.77000
Zn282      Zn  0.65561636  0.10337180  0.27042452     1.55700
O283        O  0.70636833  0.02313171  0.18582359    -0.78400
Cd284      Cd  0.67449606  0.02266385  0.27622381     1.59700
Cd285      Cd  0.59870230  0.04854694  0.24373765     1.59600
O286        O  0.63371950  0.99240598  0.30155715    -0.78400
O287        O  0.65127045  0.05986312  0.24699784    -1.88900
Cd288      Cd  0.66851685  0.06166293  0.19476147     1.59900
O289        O  0.58273174  0.01920074  0.28622183    -0.78400
O290        O  0.68698394  0.11030314  0.18252926    -0.77000
C291        C  0.57259753  0.11677103  0.26289979     0.85500
C292        C  0.69467901  0.07226095  0.33928265     0.85200
O293        O  0.68375529  0.13678812  0.23661154    -0.76000
C294        C  0.71711319  0.49795752  0.20462379     0.86000
O295        O  0.60425637  0.12389573  0.27549047    -0.76100
C296        C  0.59931417  0.99721677  0.30476618     0.86100
C297        C  0.59608218  0.03396492  0.16408972     0.86400
O298        O  0.58558944  0.02506445  0.19585346    -0.78500
C299        C  0.70586982  0.20064712  0.12873970     0.82700
N300        N  0.69661244  0.17206659  0.14667444    -0.75600
C301        C  0.70374251  0.16785635  0.18334329     0.85100
N302        N  0.72062916  0.19290710  0.20238354    -0.75600
C303        C  0.73070212  0.22166578  0.18490352     0.85200
N304        N  0.72293663  0.22530284  0.14812938    -0.77300
C305        C  0.57705304  0.47820479  0.32999458    -0.10800
C306        C  0.55016620  0.46919515  0.34675692    -0.12400
C307        C  0.42665714  0.38984719  0.42180502    -0.10800
C308        C  0.44853202  0.41064012  0.41246491    -0.12400
C309        C  0.54293048  0.13962795  0.26842466    -0.10800
C310        C  0.52107797  0.16044195  0.27774756    -0.12400
C311        C  0.39270894  0.22831779  0.36008830    -0.10800
C312        C  0.41955671  0.21926399  0.34329999    -0.12400
C313        C  0.39764487  0.50002650  0.30605093    -0.10800
C314        C  0.42174217  0.49758990  0.32841878    -0.12400
C315        C  0.54783714  0.03032859  0.11149139    -0.10800
C316        C  0.57193233  0.02788438  0.13386147    -0.12400
C317        C  0.39251497  0.04961910  0.10994044    -0.10800
C318        C  0.41939137  0.05864471  0.09317456    -0.12400
C319        C  0.57201959  0.25007032  0.38380548    -0.10800
C320        C  0.54795872  0.24766374  0.36139938    -0.12400
C321        C  0.54283484  0.13805499  0.01810837    -0.10800
C322        C  0.52096125  0.11726196  0.02744778    -0.12400
C323        C  0.39754566  0.27778797  0.55611635    -0.10800
C324        C  0.42160797  0.28021431  0.07851848    -0.12400
C325        C  0.42670449  0.38826120  0.17151335    -0.10800
C326        C  0.44854484  0.36744460  0.16217076    -0.12400
C327        C  0.57686575  0.29951921  0.07982330    -0.10800
C328        C  0.55002167  0.30858326  0.09660744    -0.12400
C329        C  0.07691568  0.47833394  0.35999436    -0.10800
C330        C  0.05005609  0.46930119  0.34320780    -0.12400
C331        C  0.92669432  0.38973836  0.26822476    -0.10800
C332        C  0.94855058  0.41054744  0.27755647    -0.12400
C333        C  0.02107109  0.16061883  0.41237465    -0.10800
C334        C  0.04291487  0.13979396  0.42169551    -0.12400
C335        C  0.89268432  0.22837028  0.32991701    -0.10800
C336        C  0.91954703  0.21934096  0.34670333    -0.12400
C337        C  0.07203910  0.25005812  0.30609515    -0.10800
C338        C  0.04797291  0.24765956  0.32849544    -0.12400
C339        C  0.92160029  0.28009808  0.11143591    -0.10800
C340        C  0.89754014  0.27771927  0.13384497    -0.12400
C341        C  0.07687342  0.29945344  0.10999071    -0.10800
C342        C  0.05000494  0.30846538  0.09319896    -0.12400
C343        C  0.92162741  0.49761671  0.36139527    -0.10800
C344        C  0.89756608  0.50002590  0.38380023    -0.12400
C345        C  0.94842337  0.36715409  0.02756736    -0.10800
C346        C  0.92657605  0.38798225  0.01826075    -0.12400
C347        C  0.07200033  0.02777918  0.55613050    -0.10800
C348        C  0.04793289  0.03017988  0.07852927    -0.12400
C349        C  0.02107755  0.11724724  0.16237555    -0.10800
C350        C  0.04294364  0.13805056  0.17170209    -0.12400
C351        C  0.89264959  0.04953503  0.07994118    -0.10800
C352        C  0.91951778  0.05855804  0.09672309    -0.12400
C353        C  0.95698783  0.06158776  0.60927226     0.05600
C354        C  0.96839721  0.08639790  0.63427001    -0.10500
C355        C  0.00576273  0.08924869  0.64316621     0.03100
C356        C  0.03103349  0.06744400  0.62766802    -0.09100
C357        C  0.02015628  0.04400152  0.60181414     0.05600
C358        C  0.98316746  0.04066706  0.59294012    -0.08500
H359        H  0.94883256  0.10399816  0.64534735     0.11200
H360        H  0.05992323  0.07092570  0.63300302     0.08700
H361        H  0.97502403  0.02317810  0.57178734     0.08600
O362        O  0.79107789  0.43163835  0.57234102    -0.76000
C363        C  0.77809788  0.39128713  0.45204316     0.85000
O364        O  0.90343917  0.43801112  0.49631176    -0.77100
O365        O  0.84441841  0.47698038  0.90902276    -0.78600
O366        O  0.76156231  0.03361042  0.48879738    -0.78400
O367        O  0.77013915  0.48397452  0.57372953    -0.77000
Zn368      Zn  0.81395106  0.42442244  0.52038570     1.55700
O369        O  0.76323913  0.00471149  0.93584180    -0.78400
Cd370      Cd  0.79517591  0.00514731  0.52619588     1.59700
Cd371      Cd  0.87093922  0.47917978  0.49370827     1.59600
O372        O  0.83598736  0.03537055  0.55149468    -0.78400
O373        O  0.81835497  0.46792970  0.49696959    -1.88900
Cd374      Cd  0.80107095  0.46616842  0.94474672     1.59900
O375        O  0.88694557  0.50851016  0.53620095    -0.78400
O376        O  0.78256218  0.41754978  0.93249709    -0.77000
C377        C  0.89694340  0.41089099  0.51278481     0.85500
C378        C  0.77497816  0.45558200  0.58926813     0.85200
O379        O  0.78571407  0.39106656  0.48658690    -0.76000
C380        C  0.75253600  0.02989761  0.45464077     0.86000
O381        O  0.86527789  0.40379845  0.52537771    -0.76100
C382        C  0.87038383  0.03052404  0.55471991     0.86100
C383        C  0.87348178  0.49387091  0.91405616     0.86400
O384        O  0.88404975  0.50267558  0.94582982    -0.78500
C385        C  0.76358326  0.32722752  0.87871160     0.82700
N386        N  0.77284093  0.35580901  0.89664355    -0.75600
C387        C  0.76571181  0.36002140  0.93331027     0.85100
N388        N  0.74882815  0.33497153  0.95235203    -0.75600
C389        C  0.73875655  0.30621163  0.93487386     0.85200
N390        N  0.74651973  0.30257256  0.89810167    -0.77300
C391        C  0.01253369  0.31148624  0.58064239     0.05600
C392        C  0.00111630  0.33629328  0.55564111    -0.10500
C393        C  0.96374570  0.33914430  0.54675711     0.03100
C394        C  0.93848041  0.31733809  0.56226686    -0.09100
C395        C  0.94936645  0.29390146  0.58812452     0.05600
C396        C  0.98635740  0.29056774  0.59698503    -0.08500
H397        H  0.02067655  0.35389444  0.54455878     0.11200
H398        H  0.90958912  0.32082037  0.55694598     0.08700
H399        H  0.99450550  0.27308435  0.61814398     0.08600
O400        O  0.17849700  0.18163327  0.61759343    -0.76000
C401        C  0.19142135  0.14126432  0.73787795     0.85000
O402        O  0.06616627  0.18800021  0.69376702    -0.77100
O403        O  0.12516600  0.22695912  0.78089741    -0.78600
O404        O  0.20804631  0.28360327  0.70116494    -0.78400
O405        O  0.19940683  0.23398227  0.61619971    -0.77000
Zn406      Zn  0.15559165  0.17442088  0.66953385     1.55700
O407        O  0.20638543  0.25469554  0.75411601    -0.78400
Cd408      Cd  0.17439526  0.25515681  0.66375554     1.59700
Cd409      Cd  0.09867299  0.22916317  0.69624985     1.59600
O410        O  0.13354085  0.28536964  0.63848977    -0.78400
O411        O  0.15124656  0.21792024  0.69296988    -1.88900
Cd412      Cd  0.16852962  0.21615948  0.74519140     1.59900
O413        O  0.08262340  0.25840423  0.65370176    -0.78400
O414        O  0.18700690  0.16753370  0.75742221    -0.77000
C415        C  0.07260591  0.16092225  0.67719225     0.85500
C416        C  0.19459221  0.20558183  0.60066704     0.85200
O417        O  0.18377668  0.14104136  0.70334043    -0.76000
C418        C  0.21709540  0.27988224  0.73531715     0.86000
O419        O  0.10423930  0.15384659  0.66450736    -0.76100
C420        C  0.09915686  0.28046088  0.63521759     0.86100
C421        C  0.09613839  0.24389647  0.77585588     0.86400
O422        O  0.08561701  0.25274464  0.74408217    -0.78500
C423        C  0.20596167  0.07722072  0.81121558     0.82700
N424        N  0.19669748  0.10579860  0.79328235    -0.75600
C425        C  0.20379237  0.10999713  0.75660738     0.85100
N426        N  0.22064646  0.08493942  0.73755872    -0.75600
C427        C  0.23072518  0.05618421  0.75503763     0.85200
N428        N  0.22299797  0.05255644  0.79181870    -0.77300
C429        C  0.95701409  0.21629949  0.85925894     0.05600
C430        C  0.96840854  0.19149435  0.88427097    -0.10500
C431        C  0.00577392  0.18862697  0.89316477     0.03100
C432        C  0.03105720  0.21041548  0.87765350    -0.09100
C433        C  0.02019242  0.23385372  0.85178876     0.05600
C434        C  0.98320603  0.23720128  0.84291556    -0.08500
H435        H  0.94883341  0.17390787  0.89535714     0.11200
H436        H  0.05994659  0.20692178  0.88298619     0.08700
H437        H  0.97507269  0.25468579  0.82175306     0.08600
O438        O  0.78589401  0.38681568  0.73661129    -0.76000
C439        C  0.77497751  0.32226473  0.83924938     0.85000
O440        O  0.90343481  0.33981910  0.74610995    -0.77100
O441        O  0.83602928  0.24246866  0.80141398    -0.78600
O442        O  0.76322325  0.27315027  0.68578398    -0.78400
O443        O  0.78262180  0.36032903  0.68252678    -0.77000
Zn444      Zn  0.81403891  0.35341195  0.77041272     1.55700
O445        O  0.76155995  0.24423977  0.73873268    -0.78400
Cd446      Cd  0.80107662  0.31169097  0.69473244     1.59700
Cd447      Cd  0.87091230  0.29866378  0.74366684     1.59600
O448        O  0.84444490  0.30088548  0.65903407    -0.78400
O449        O  0.81834810  0.30992138  0.74695529    -1.88900
Cd450      Cd  0.79518561  0.27268976  0.77615746     1.59900
O451        O  0.88393915  0.27503875  0.69585404    -0.78400
O452        O  0.77016213  0.29386625  0.82371083    -0.77000
C453        C  0.89702262  0.36687837  0.76273339     0.85500
C454        C  0.77823447  0.38659888  0.70207754     0.85200
O455        O  0.79109765  0.34620703  0.82233676    -0.76000
C456        C  0.75251972  0.24795754  0.70457817     0.86000
O457        O  0.86540522  0.37394802  0.77546239    -0.76100
C458        C  0.87344351  0.28390783  0.66407932     0.86100
C459        C  0.87041140  0.24737686  0.80469827     0.86400
O460        O  0.88695174  0.26944003  0.78622994    -0.78500
C461        C  0.76364779  0.45063601  0.62874820     0.82700
N462        N  0.77293349  0.42206421  0.64667974    -0.75600
C463        C  0.76586560  0.41787021  0.68335993     0.85100
N464        N  0.74901504  0.44292521  0.70241648    -0.75600
C465        C  0.73891450  0.47167415  0.68493818     0.86000
N466        N  0.74661700  0.47529833  0.64815173    -0.77300
C467        C  0.01259129  0.46625112  0.83065640     0.05600
C468        C  0.98639745  0.48715921  0.84698381    -0.10500
C469        C  0.94941101  0.48379926  0.83811434     0.03100
C470        C  0.93854993  0.46034275  0.81226776    -0.09100
C471        C  0.96383963  0.43855451  0.79676946     0.05600
C472        C  0.00120218  0.44143067  0.80566341    -0.08500
H473        H  0.99452940  0.00465843  0.86813147     0.11200
H474        H  0.90966620  0.45684132  0.80693560     0.08700
H475        H  0.02078032  0.42384242  0.79458840     0.08600
O476        O  0.18375028  0.13679480  0.95333299    -0.76000
C477        C  0.19459560  0.07226834  0.85068599     0.85000
O478        O  0.06610603  0.08981034  0.94371552    -0.77100
O479        O  0.13356886  0.99249061  0.88845186    -0.78600
O480        O  0.20629141  0.02312783  0.00412368    -0.78400
O481        O  0.18697393  0.11030869  0.00741884    -0.77000
Zn482      Zn  0.15555490  0.10341390  0.91953677     1.55700
O483        O  0.20795839  0.49422244  0.95117243    -0.78400
Cd484      Cd  0.16847423  0.06168401  0.99519655     1.59700
Cd485      Cd  0.09862310  0.04864996  0.94625781     1.59600
O486        O  0.12512050  0.05088571  0.03091729    -0.78400
O487        O  0.15119544  0.05991614  0.94297481    -1.88900
Cd488      Cd  0.17437899  0.02270181  0.91375732     1.59900
O489        O  0.08556176  0.02509821  0.99411339    -0.78400
O490        O  0.19943637  0.04387840  0.86623180    -0.77000
C491        C  0.07256377  0.11690528  0.92717623     0.85500
C492        C  0.19139757  0.13657525  0.98786950     0.85200
O493        O  0.17846706  0.09620505  0.86759736    -0.76000
C494        C  0.21698015  0.49793227  0.98533066     0.86000
O495        O  0.10420755  0.12399042  0.91452234    -0.76100
C496        C  0.09609233  0.03394494  0.02588456     0.86100
C497        C  0.09917441  0.99734154  0.88522141     0.86400
O498        O  0.08261054  0.01935299  0.90374211    -0.78500
C499        C  0.20595456  0.20062580  0.56119561     0.82700
N500        N  0.22301242  0.22527970  0.54179965    -0.75600
C501        C  0.23075275  0.22164445  0.00502211     0.85100
N502        N  0.22066155  0.19289087  0.98754400    -0.75600
C503        C  0.20378189  0.16784330  0.00659245     0.85200
N504        N  0.19667777  0.17205024  0.54326429    -0.77300
C505        C  0.51256600  0.31165234  0.60916944     0.05600
C506        C  0.50118376  0.33652095  0.63410407    -0.10500
C507        C  0.46382372  0.33941223  0.64299632     0.03100
C508        C  0.43853085  0.31759190  0.62755069    -0.09100
C509        C  0.44938898  0.29407923  0.60176786     0.05600
C510        C  0.48637089  0.29070498  0.59290288    -0.08500
H511        H  0.52076686  0.35413255  0.64513638     0.11200
H512        H  0.40964637  0.32110174  0.63287491     0.08700
H513        H  0.49449708  0.27316344  0.57179859     0.08600
O514        O  0.68370355  0.14102721  0.48661668    -0.76000
C515        C  0.69449884  0.20559726  0.58926421     0.85000
O516        O  0.56609229  0.18800122  0.49605807    -0.77100
O517        O  0.63350363  0.28538799  0.55133882    -0.78600
O518        O  0.70627145  0.25471119  0.93576214    -0.78400
O519        O  0.68698122  0.16751641  0.93253373    -0.77000
Zn520      Zn  0.65549669  0.17441366  0.52039388     1.55700
O521        O  0.70794488  0.28361517  0.48871212    -0.78400
Cd522      Cd  0.66846966  0.21613648  0.94472457     1.59700
Cd523      Cd  0.59861979  0.22916056  0.49363621     1.59600
O524        O  0.62509883  0.22689863  0.90901813    -0.78400
O525        O  0.65118456  0.21790506  0.49693749    -1.88900
Cd526      Cd  0.67433876  0.25514915  0.52612970     1.59900
O527        O  0.58562214  0.25278802  0.94581335    -0.78400
O528        O  0.69933249  0.23398885  0.57371415    -0.77000
C529        C  0.57250895  0.16092272  0.51264478     0.85500
C530        C  0.69138250  0.14124966  0.45208761     0.85200
O531        O  0.67838852  0.18164893  0.57234750    -0.76000
C532        C  0.71696628  0.27990814  0.45455378     0.86000
O533        O  0.60412853  0.15384665  0.52537295    -0.76100
C534        C  0.59611186  0.24389386  0.91404710     0.86100
C535        C  0.59912412  0.28048290  0.55462822     0.86400
O536        O  0.58257911  0.25840186  0.53618661    -0.78500
C537        C  0.70601703  0.07722154  0.87876008     0.82700
N538        N  0.72304957  0.05256433  0.89816945    -0.75600
C539        C  0.73074638  0.05618902  0.93495687     0.85100
N540        N  0.72063767  0.08493510  0.95243455    -0.75600
C541        C  0.70378139  0.10998666  0.93337258     0.85200
N542        N  0.69671962  0.10579081  0.89668917    -0.77300
C543        C  0.45687260  0.06168239  0.58065822     0.05600
C544        C  0.48306005  0.04081140  0.59706555    -0.10500
C545        C  0.52005149  0.04414095  0.58819887     0.03100
C546        C  0.53092540  0.06753534  0.56229069    -0.09100
C547        C  0.50564835  0.08929540  0.54671874     0.05600
C548        C  0.46827913  0.08644356  0.55559838    -0.08500
H549        H  0.47491813  0.02335887  0.61825091     0.11200
H550        H  0.55981189  0.07101261  0.55695662     0.08700
H551        H  0.44870734  0.10400725  0.54445620     0.08600
O552        O  0.28591628  0.39103614  0.70330833    -0.76000
C553        C  0.27488637  0.45557254  0.60067128     0.85000
O554        O  0.40345290  0.43818284  0.69363519    -0.77100
O555        O  0.33586209  0.03542242  0.63839570    -0.78600
O556        O  0.26324075  0.00470561  0.75414324    -0.78400
O557        O  0.28263765  0.41751895  0.75739090    -0.77000
Zn558      Zn  0.31401316  0.42447534  0.66949705     1.55700
O559        O  0.26150271  0.03360262  0.70118371    -0.78400
Cd560      Cd  0.30108551  0.46616871  0.74518054     1.59700
Cd561      Cd  0.37087973  0.47930083  0.69621413     1.59600
O562        O  0.34448526  0.47694854  0.78087065    -0.78400
O563        O  0.31832143  0.46797401  0.69294350    -1.88900
Cd564      Cd  0.29508917  0.00517025  0.66372944     1.59900
O565        O  0.38394780  0.50285010  0.74406865    -0.78400
O566        O  0.27002738  0.48396230  0.61621238    -0.77000
C567        C  0.39702830  0.41110505  0.67704877     0.85500
C568        C  0.27826164  0.39124464  0.73784225     0.85200
O569        O  0.29104537  0.43165219  0.61758176    -0.76000
C570        C  0.25251054  0.02988970  0.73534986     0.86000
O571        O  0.36538788  0.40399301  0.66440292    -0.76100
C572        C  0.37348993  0.49392242  0.77583408     0.86100
C573        C  0.37026362  0.03060285  0.63516988     0.86400
O574        O  0.38684911  0.50861216  0.65370199    -0.78500
C575        C  0.26373433  0.32717991  0.81116692     0.82700
N576        N  0.24667007  0.30252783  0.79177034    -0.75600
C577        C  0.23892713  0.30616315  0.75499121     0.85100
N578        N  0.24902288  0.33491534  0.73751249    -0.75600
C579        C  0.26590914  0.35996144  0.75656053     0.85200
N580        N  0.27301420  0.35575434  0.79323415    -0.77300
C581        C  0.45701502  0.21621161  0.83073264     0.05600
C582        C  0.46841276  0.19134647  0.80579849    -0.10500
C583        C  0.50577574  0.18847452  0.79690411     0.03100
C584        C  0.53105379  0.21031030  0.81234477    -0.09100
C585        C  0.52018402  0.23381115  0.83813442     0.05600
C586        C  0.48320018  0.23716916  0.84699961    -0.08500
H587        H  0.44884204  0.17372302  0.79477132     0.11200
H588        H  0.55994236  0.20681377  0.80702063     0.08700
H589        H  0.47506578  0.25470359  0.86810927     0.08600
O590        O  0.29115485  0.34618900  0.86758413    -0.76000
C591        C  0.27811312  0.38656624  0.98787146     0.85000
O592        O  0.40345001  0.33986338  0.94380722    -0.77100
O593        O  0.34443999  0.30090914  0.03090517    -0.78600
O594        O  0.26158658  0.24422578  0.95118758    -0.78400
O595        O  0.27024310  0.29383895  0.86619326    -0.77000
Zn596      Zn  0.31401082  0.35342998  0.91955288     1.55700
O597        O  0.26326016  0.27312750  0.00413950    -0.78400
Cd598      Cd  0.29522105  0.27268116  0.91378372     1.59700
Cd599      Cd  0.37094033  0.29869175  0.94626724     1.59600
O600        O  0.33606371  0.24244023  0.88857540    -0.78400
O601        O  0.31836458  0.30992974  0.94298569    -1.88900
Cd602      Cd  0.30107427  0.31168938  0.99519963     1.59900
O603        O  0.38698282  0.26943456  0.90372665    -0.78400
O604        O  0.28255250  0.36030252  0.00742116    -0.77000
C605        C  0.39699887  0.36696116  0.92727216     0.85500
C606        C  0.27507284  0.32223409  0.85065141     0.85200
O607        O  0.28576512  0.38679123  0.95333599    -0.76000
C608        C  0.25255689  0.24793717  0.98534343     0.86000
O609        O  0.36536044  0.37403919  0.91459354    -0.76100
C610        C  0.37044333  0.24734960  0.88528551     0.86100
C611        C  0.37345357  0.28395269  0.02587141     0.86400
O612        O  0.38397048  0.27509409  0.99410150    -0.78500
C613        C  0.26351522  0.45060362  0.56120345     0.82700
N614        N  0.24647484  0.47526024  0.54179928    -0.75600
C615        C  0.23875498  0.47163019  0.00501723     0.85100
N616        N  0.24884652  0.44287818  0.98754024    -0.75600
C617        C  0.26570948  0.41782616  0.00659608     0.85200
N618        N  0.27279604  0.42202874  0.54327428    -0.77300
C619        C  0.51267834  0.46618168  0.85926762     0.05600
C620        C  0.48650954  0.48706959  0.84285690    -0.10500
C621        C  0.44951400  0.48376478  0.85171716     0.03100
C622        C  0.43861614  0.46037650  0.87762182    -0.09100
C623        C  0.46387143  0.43859877  0.89319765     0.05600
C624        C  0.50124576  0.44142719  0.88432540    -0.08500
H625        H  0.49466941  0.00451846  0.82167055     0.11200
H626        H  0.40972452  0.45691744  0.88294946     0.08700
H627        H  0.52080058  0.42385099  0.89547098     0.08600
O628        O  0.67854580  0.09618795  0.82235809    -0.76000
C629        C  0.69139018  0.13657584  0.70207287     0.85000
O630        O  0.56614289  0.08966772  0.74637773    -0.77100
O631        O  0.62512273  0.05088961  0.65906025    -0.78600
O632        O  0.70811700  0.49424303  0.73878885    -0.78400
O633        O  0.69953803  0.04386967  0.82374709    -0.77000
Zn634      Zn  0.65561634  0.10337178  0.77042454     1.55700
O635        O  0.70636831  0.02313173  0.68582359    -0.78400
Cd636      Cd  0.67449606  0.02266387  0.77622383     1.59700
Cd637      Cd  0.59870231  0.04854689  0.74373766     1.59600
O638        O  0.63371954  0.99240600  0.80155722    -0.78400
O639        O  0.65127044  0.05986311  0.74699786    -1.88900
Cd640      Cd  0.66851684  0.06166294  0.69476149     1.59900
O641        O  0.58273175  0.01920066  0.78622180    -0.78400
O642        O  0.68698394  0.11030313  0.68252929    -0.77000
C643        C  0.57259752  0.11677097  0.76289984     0.85500
C644        C  0.69467901  0.07226096  0.83928265     0.85200
O645        O  0.68375526  0.13678811  0.73661157    -0.76000
C646        C  0.71711321  0.49795749  0.70462382     0.86000
O647        O  0.60425636  0.12389569  0.77549052    -0.76100
C648        C  0.59931420  0.99721673  0.80476620     0.86100
C649        C  0.59608219  0.03396492  0.66408973     0.86400
O650        O  0.58558949  0.02506441  0.69585345    -0.78500
C651        C  0.70586986  0.20064708  0.62873972     0.82700
N652        N  0.69661245  0.17206656  0.64667446    -0.75600
C653        C  0.70374251  0.16785633  0.68334332     0.85100
N654        N  0.72062916  0.19290707  0.70238356    -0.75600
C655        C  0.73070216  0.22166574  0.68490353     0.85200
N656        N  0.72293668  0.22530279  0.64812939    -0.77300
C657        C  0.57705311  0.47820476  0.82999461    -0.10800
C658        C  0.55016625  0.46919514  0.84675695    -0.12400
C659        C  0.42665722  0.38984711  0.92180504    -0.10800
C660        C  0.44853207  0.41064005  0.91246488    -0.12400
C661        C  0.54293046  0.13962790  0.76842470    -0.10800
C662        C  0.52107798  0.16044192  0.77774756    -0.12400
C663        C  0.39270892  0.22831771  0.86008832    -0.10800
C664        C  0.41955669  0.21926392  0.84330000    -0.12400
C665        C  0.39764494  0.50002645  0.80605085    -0.10800
C666        C  0.42174223  0.49758984  0.82841871    -0.12400
C667        C  0.54783709  0.03032867  0.61149142    -0.10800
C668        C  0.57193230  0.02788441  0.63386148    -0.12400
C669        C  0.39251491  0.04961906  0.60994032    -0.10800
C670        C  0.41939132  0.05864469  0.59317445    -0.12400
C671        C  0.57201951  0.25007026  0.88380555    -0.10800
C672        C  0.54795868  0.24766372  0.86139941    -0.12400
C673        C  0.54283483  0.13805502  0.51810833    -0.10800
C674        C  0.52096122  0.11726201  0.52744776    -0.12400
C675        C  0.39754566  0.27778791  0.05611635    -0.10800
C676        C  0.42160795  0.28021438  0.57851850    -0.12400
C677        C  0.42670456  0.38826121  0.67151336    -0.10800
C678        C  0.44854494  0.36744462  0.66217082    -0.12400
C679        C  0.57686575  0.29951910  0.57982330    -0.10800
C680        C  0.55002171  0.30858317  0.59660748    -0.12400
C681        C  0.07691565  0.47833395  0.85999436    -0.10800
C682        C  0.05005607  0.46930118  0.84320778    -0.12400
C683        C  0.92669430  0.38973839  0.76822469    -0.10800
C684        C  0.94855056  0.41054747  0.77755639    -0.12400
C685        C  0.02107109  0.16061884  0.91237474    -0.10800
C686        C  0.04291484  0.13979395  0.92169562    -0.12400
C687        C  0.89268433  0.22837025  0.82991706    -0.10800
C688        C  0.91954704  0.21934095  0.84670336    -0.12400
C689        C  0.07203910  0.25005811  0.80609521    -0.10800
C690        C  0.04797294  0.24765959  0.82849551    -0.12400
C691        C  0.92160038  0.28009810  0.61143605    -0.10800
C692        C  0.89754022  0.27771926  0.63384508    -0.12400
C693        C  0.07687347  0.29945350  0.60999074    -0.10800
C694        C  0.05000500  0.30846543  0.59319898    -0.12400
C695        C  0.92162741  0.49761676  0.86139514    -0.10800
C696        C  0.89756609  0.50002594  0.88380013    -0.12400
C697        C  0.94842339  0.36715410  0.52756743    -0.10800
C698        C  0.92657609  0.38798227  0.51826080    -0.12400
C699        C  0.07200035  0.02777919  0.05613055    -0.10800
C700        C  0.04793289  0.03017984  0.57852922    -0.12400
C701        C  0.02107757  0.11724720  0.66237556    -0.10800
C702        C  0.04294362  0.13805053  0.67170210    -0.12400
C703        C  0.89264958  0.04953497  0.57994129    -0.10800
C704        C  0.91951777  0.05855796  0.59672318    -0.12400
C705        C  0.95698779  0.56158788  0.10927231     0.05600
C706        C  0.96839744  0.58639775  0.13426986    -0.10500
C707        C  0.00576260  0.58924877  0.14316624     0.03100
C708        C  0.03103420  0.56744411  0.12766823    -0.09100
C709        C  0.02015623  0.54400154  0.10181422     0.05600
C710        C  0.98316724  0.54066669  0.09293966    -0.08500
H711        H  0.94883135  0.60399932  0.14534797     0.11200
H712        H  0.05992061  0.57092534  0.13300262     0.08700
H713        H  0.97502470  0.52317951  0.07178906     0.08600
O714        O  0.79107789  0.93163842  0.07234097    -0.76000
C715        C  0.77809784  0.89128714  0.95204313     0.85000
O716        O  0.90343916  0.93801113  0.99631169    -0.77100
O717        O  0.84441841  0.97698035  0.40902282    -0.78600
O718        O  0.76156232  0.53361044  0.98879739    -0.78400
O719        O  0.77013922  0.98397461  0.07372951    -0.77000
Zn720      Zn  0.81395104  0.92442247  0.02038564     1.55700
O721        O  0.76323918  0.50471148  0.43584181    -0.78400
Cd722      Cd  0.79517594  0.50514732  0.02619585     1.59700
Cd723      Cd  0.87093922  0.97917980  0.99370819     1.59600
O724        O  0.83598743  0.53537057  0.05149461    -0.78400
O725        O  0.81835496  0.96792974  0.99696952    -1.88900
Cd726      Cd  0.80107094  0.96616842  0.44474677     1.59900
O727        O  0.88694559  0.00851016  0.03620088    -0.78400
O728        O  0.78256219  0.91754978  0.43249714    -0.77000
C729        C  0.89694338  0.91089101  0.01278475     0.85500
C730        C  0.77497820  0.95558208  0.08926810     0.85200
O731        O  0.78571402  0.89106658  0.98658687    -0.76000
C732        C  0.75253601  0.52989763  0.95464078     0.86000
O733        O  0.86527787  0.90379849  0.02537765    -0.76100
C734        C  0.87038388  0.53052403  0.05471984     0.86100
C735        C  0.87348176  0.99387089  0.41405623     0.86400
O736        O  0.88404971  0.00267559  0.44582989    -0.78500
C737        C  0.76358333  0.82722753  0.37871161     0.82700
N738        N  0.77284099  0.85580903  0.39664358    -0.75600
C739        C  0.76571186  0.86002141  0.43331029     0.85100
N740        N  0.74882821  0.83497153  0.45235205    -0.75600
C741        C  0.73875663  0.80621162  0.43487387     0.85200
N742        N  0.74651982  0.80257256  0.39810167    -0.77300
C743        C  0.01253365  0.81148619  0.08064238     0.05600
C744        C  0.00111631  0.83629328  0.05564109    -0.10500
C745        C  0.96374569  0.83914429  0.04675706     0.03100
C746        C  0.93848027  0.81733808  0.06226675    -0.09100
C747        C  0.94936641  0.79390142  0.08812445     0.05600
C748        C  0.98635732  0.79056775  0.09698493    -0.08500
H749        H  0.02067646  0.85389436  0.04455885     0.11200
H750        H  0.90958953  0.82082029  0.05694594     0.08700
H751        H  0.99450550  0.77308411  0.11814417     0.08600
O752        O  0.17849706  0.68163328  0.11759340    -0.76000
C753        C  0.19142135  0.64126433  0.23787792     0.85000
O754        O  0.06616636  0.68800017  0.19376701    -0.77100
O755        O  0.12516605  0.72695911  0.28089736    -0.78600
O756        O  0.20804635  0.78360327  0.20116490    -0.78400
O757        O  0.19940691  0.73398227  0.11619969    -0.77000
Zn758      Zn  0.15559172  0.67442089  0.16953380     1.55700
O759        O  0.20638549  0.75469553  0.25411597    -0.78400
Cd760      Cd  0.17439531  0.75515681  0.16375549     1.59700
Cd761      Cd  0.09867307  0.72916315  0.19624981     1.59600
O762        O  0.13354086  0.78536961  0.13848970    -0.78400
O763        O  0.15124663  0.71792024  0.19296983    -1.88900
Cd764      Cd  0.16852967  0.71615948  0.24519136     1.59900
O765        O  0.08262343  0.75840417  0.15370172    -0.78400
O766        O  0.18700691  0.66753370  0.25742218    -0.77000
C767        C  0.07260599  0.66092224  0.17719219     0.85500
C768        C  0.19459227  0.70558184  0.10066701     0.85200
O769        O  0.18377670  0.64104137  0.20334039    -0.76000
C770        C  0.21709544  0.77988223  0.23531711     0.86000
O771        O  0.10423936  0.65384659  0.16450727    -0.76100
C772        C  0.09915687  0.78046082  0.13521754     0.86100
C773        C  0.09613844  0.74389647  0.27585582     0.86400
O774        O  0.08561710  0.75274466  0.24408211    -0.78500
C775        C  0.20596163  0.57722072  0.31121554     0.82700
N776        N  0.19669745  0.60579860  0.29328232    -0.75600
C777        C  0.20379233  0.60999713  0.25660734     0.85100
N778        N  0.22064640  0.58493942  0.23755868    -0.75600
C779        C  0.23072510  0.55618421  0.25503759     0.85200
N780        N  0.22299791  0.55255643  0.29181866    -0.77300
C781        C  0.95701399  0.71629938  0.35925897     0.05600
C782        C  0.96840872  0.69149452  0.38427079    -0.10500
C783        C  0.00577375  0.68862691  0.39316475     0.03100
C784        C  0.03105782  0.71041537  0.37765363    -0.09100
C785        C  0.02019232  0.73385369  0.35178874     0.05600
C786        C  0.98320578  0.73720157  0.34291514    -0.08500
H787        H  0.94883216  0.67390673  0.39535777     0.11200
H788        H  0.05994401  0.70692210  0.38298571     0.08700
H789        H  0.97507315  0.75468463  0.32175441     0.08600
O790        O  0.78589407  0.88681572  0.23661125    -0.76000
C791        C  0.77497757  0.82226475  0.33924939     0.85000
O792        O  0.90343481  0.83981910  0.24610994    -0.77100
O793        O  0.83602929  0.74246866  0.30141393    -0.78600
O794        O  0.76322320  0.77315031  0.18578396    -0.78400
O795        O  0.78262182  0.86032907  0.18252674    -0.77000
Zn796      Zn  0.81403892  0.85341197  0.27041270     1.55700
O797        O  0.76155994  0.74423979  0.23873266    -0.78400
Cd798      Cd  0.80107660  0.81169100  0.19473241     1.59700
Cd799      Cd  0.87091230  0.79866379  0.24366680     1.59600
O800        O  0.84444485  0.80088548  0.15903403    -0.78400
O801        O  0.81834810  0.80992140  0.24695526    -1.88900
Cd802      Cd  0.79518562  0.77268978  0.27615743     1.59900
O803        O  0.88393914  0.77503877  0.19585398    -0.78400
O804        O  0.77016220  0.79386627  0.32371084    -0.77000
C805        C  0.89702263  0.86687835  0.26273343     0.85500
C806        C  0.77823453  0.88659893  0.20207750     0.85200
O807        O  0.79109767  0.84620707  0.32233675    -0.76000
C808        C  0.75251970  0.74795758  0.20457815     0.86000
O809        O  0.86540523  0.87394801  0.27546241    -0.76100
C810        C  0.87344346  0.78390784  0.16407926     0.86100
C811        C  0.87041140  0.74737686  0.30469821     0.86400
O812        O  0.88695174  0.76944004  0.28622989    -0.78500
C813        C  0.76364785  0.95063609  0.12874818     0.82700
N814        N  0.77293356  0.92206429  0.14667971    -0.75600
C815        C  0.76586567  0.91787027  0.18335990     0.85100
N816        N  0.74901509  0.94292526  0.20241645    -0.75600
C817        C  0.73891453  0.97167420  0.18493817     0.86000
N818        N  0.74661704  0.97529840  0.14815172    -0.77300
C819        C  0.01259134  0.96625103  0.33065640     0.05600
C820        C  0.98639753  0.98715924  0.34698396    -0.10500
C821        C  0.94941104  0.98379919  0.33811440     0.03100
C822        C  0.93854997  0.96034267  0.31226787    -0.09100
C823        C  0.96383967  0.93855442  0.29676954     0.05600
C824        C  0.00120196  0.94143083  0.30566361    -0.08500
H825        H  0.99452967  0.50465904  0.36813231     0.11200
H826        H  0.90966620  0.95684124  0.30693573     0.08700
H827        H  0.02078126  0.92384155  0.29458792     0.08600
O828        O  0.18375032  0.63679480  0.45333300    -0.76000
C829        C  0.19459559  0.57226834  0.35068596     0.85000
O830        O  0.06610606  0.58981038  0.44371544    -0.77100
O831        O  0.13356887  0.49249063  0.38845183    -0.78600
O832        O  0.20629143  0.52312784  0.50412364    -0.78400
O833        O  0.18697395  0.61030868  0.50741885    -0.77000
Zn834      Zn  0.15555494  0.60341391  0.41953676     1.55700
O835        O  0.20795846  0.99422244  0.45117241    -0.78400
Cd836      Cd  0.16847425  0.56168402  0.49519652     1.59700
Cd837      Cd  0.09862311  0.54864999  0.44625777     1.59600
O838        O  0.12512050  0.55088571  0.53091727    -0.78400
O839        O  0.15119546  0.55991615  0.44297478    -1.88900
Cd840      Cd  0.17437900  0.52270183  0.41375729     1.59900
O841        O  0.08556173  0.52509826  0.49411335    -0.78400
O842        O  0.19943638  0.54387841  0.36623177    -0.77000
C843        C  0.07256382  0.61690531  0.42717615     0.85500
C844        C  0.19139760  0.63657524  0.48786952     0.85200
O845        O  0.17846707  0.59620506  0.36759734    -0.76000
C846        C  0.21698020  0.99793224  0.48533065     0.86000
O847        O  0.10420760  0.62399045  0.41452229    -0.76100
C848        C  0.09609231  0.53394497  0.52588452     0.86100
C849        C  0.09917442  0.49734156  0.38522138     0.86400
O850        O  0.08261055  0.51935302  0.40374208    -0.78500
C851        C  0.20595460  0.70062581  0.06119558     0.82700
N852        N  0.22301244  0.72527972  0.04179962    -0.75600
C853        C  0.23075277  0.72164444  0.50502213     0.85100
N854        N  0.22066158  0.69289086  0.48754403    -0.75600
C855        C  0.20378193  0.66784328  0.50659248     0.85200
N856        N  0.19667780  0.67205026  0.04326426    -0.77300
C857        C  0.51256597  0.81165248  0.10916952     0.05600
C858        C  0.50118348  0.83652087  0.13410394    -0.10500
C859        C  0.46382366  0.83941232  0.14299630     0.03100
C860        C  0.43853099  0.81759194  0.12755064    -0.09100
C861        C  0.44938891  0.79407929  0.10176793     0.05600
C862        C  0.48637105  0.79070464  0.09290247    -0.08500
H863        H  0.52076763  0.85413342  0.14513682     0.11200
H864        H  0.40964555  0.82110187  0.13287498     0.08700
H865        H  0.49449641  0.77316490  0.07180041     0.08600
O866        O  0.68370352  0.64102721  0.98661665    -0.76000
C867        C  0.69449882  0.70559726  0.08926420     0.85000
O868        O  0.56609228  0.68800119  0.99605813    -0.77100
O869        O  0.63350359  0.78538802  0.05133879    -0.78600
O870        O  0.70627154  0.75471118  0.43576213    -0.78400
O871        O  0.68698124  0.66751639  0.43253373    -0.77000
Zn872      Zn  0.65549667  0.67441365  0.02039388     1.55700
O873        O  0.70794482  0.78361517  0.98871212    -0.78400
Cd874      Cd  0.66846971  0.71613648  0.44472453     1.59700
Cd875      Cd  0.59861974  0.72916053  0.99363627     1.59600
O876        O  0.62509890  0.72689869  0.40901805    -0.78400
O877        O  0.65118451  0.71790505  0.99693751    -1.88900
Cd878      Cd  0.67433871  0.75514916  0.02612970     1.59900
O879        O  0.58562221  0.75278805  0.44581329    -0.78400
O880        O  0.69933244  0.73398887  0.07371415    -0.77000
C881        C  0.57250894  0.66092270  0.01264484     0.85500
C882        C  0.69138248  0.64124967  0.95208758     0.85200
O883        O  0.67838853  0.68164893  0.07234748    -0.76000
C884        C  0.71696621  0.77990814  0.95455378     0.86000
O885        O  0.60412853  0.65384663  0.02537300    -0.76100
C886        C  0.59611194  0.74389392  0.41404704     0.86100
C887        C  0.59912410  0.78048290  0.05462823     0.86400
O888        O  0.58257908  0.75840183  0.03618668    -0.78500
C889        C  0.70601699  0.57722150  0.37876011     0.82700
N890        N  0.72304955  0.55256429  0.39816946    -0.75600
C891        C  0.73074639  0.55618899  0.43495688     0.85100
N892        N  0.72063769  0.58493508  0.45243456    -0.75600
C893        C  0.70378140  0.60998663  0.43337260     0.85200
N894        N  0.69671959  0.60579077  0.39668920    -0.77300
C895        C  0.45687258  0.56168231  0.08065836     0.05600
C896        C  0.48306023  0.54081172  0.09706511    -0.10500
C897        C  0.52005142  0.54414080  0.08819892     0.03100
C898        C  0.53092552  0.56753525  0.06229066    -0.09100
C899        C  0.50564826  0.58929535  0.04671879     0.05600
C900        C  0.46827934  0.58644330  0.05559865    -0.08500
H901        H  0.47491748  0.52335733  0.11825270     0.11200
H902        H  0.55981096  0.57101238  0.05695673     0.08700
H903        H  0.44870656  0.60400793  0.04445593     0.08600
O904        O  0.28591626  0.89103616  0.20330836    -0.76000
C905        C  0.27488639  0.95557254  0.10067132     0.85000
O906        O  0.40345292  0.93818283  0.19363522    -0.77100
O907        O  0.33586215  0.53542243  0.13839577    -0.78600
O908        O  0.26324068  0.50470562  0.25414321    -0.78400
O909        O  0.28263760  0.91751897  0.25739092    -0.77000
Zn910      Zn  0.31401316  0.92447536  0.16949710     1.55700
O911        O  0.26150270  0.53360265  0.20118369    -0.78400
Cd912      Cd  0.30108548  0.96616873  0.24518057     1.59700
Cd913      Cd  0.37087976  0.97930082  0.19621421     1.59600
O914        O  0.34448519  0.97694857  0.28087072    -0.78400
O915        O  0.31832145  0.96797402  0.19294355    -1.88900
Cd916      Cd  0.29508918  0.50517029  0.16372947     1.59900
O917        O  0.38394779  0.00285007  0.24406875    -0.78400
O918        O  0.27002740  0.98396230  0.11621242    -0.77000
C919        C  0.39702830  0.91110505  0.17704880     0.85500
C920        C  0.27826160  0.89124465  0.23784227     0.85200
O921        O  0.29104538  0.93165219  0.11758180    -0.76000
C922        C  0.25251048  0.52988971  0.23534983     0.86000
O923        O  0.36538786  0.90399301  0.16440297    -0.76100
C924        C  0.37348987  0.99392243  0.27583417     0.86100
C925        C  0.37026368  0.53060284  0.13516998     0.86400
O926        O  0.38684918  0.00861219  0.15370212    -0.78500
C927        C  0.26373431  0.82717990  0.31116691     0.82700
N928        N  0.24667008  0.80252782  0.29177032    -0.75600
C929        C  0.23892715  0.80616315  0.25499119     0.85100
N930        N  0.24902287  0.83491534  0.23751248    -0.75600
C931        C  0.26590910  0.85996145  0.25656054     0.85200
N932        N  0.27301414  0.85575435  0.29323416    -0.77300
C933        C  0.45701504  0.71621160  0.33073265     0.05600
C934        C  0.46841261  0.69134631  0.30579843    -0.10500
C935        C  0.50577575  0.68847455  0.29690413     0.03100
C936        C  0.53105423  0.71031030  0.31234468    -0.09100
C937        C  0.52018402  0.73381120  0.33813439     0.05600
C938        C  0.48320004  0.73716951  0.34699998    -0.08500
H939        H  0.44884254  0.67372342  0.29477164     0.11200
H940        H  0.55994107  0.70681401  0.30702085     0.08700
H941        H  0.47506623  0.75470266  0.36810810     0.08600
O942        O  0.29115481  0.84618900  0.36758413    -0.76000
C943        C  0.27811308  0.88656619  0.48787142     0.85000
O944        O  0.40345000  0.83986344  0.44380720    -0.77100
O945        O  0.34444000  0.80090915  0.53090515    -0.78600
O946        O  0.26158659  0.74422577  0.45118759    -0.78400
O947        O  0.27024313  0.79383893  0.36619324    -0.77000
Zn948      Zn  0.31401081  0.85342997  0.41955285     1.55700
O949        O  0.26326017  0.77312750  0.50413951    -0.78400
Cd950      Cd  0.29522106  0.77268114  0.41378372     1.59700
Cd951      Cd  0.37094034  0.79869179  0.44626721     1.59600
O952        O  0.33606375  0.74244020  0.38857545    -0.78400
O953        O  0.31836459  0.80992973  0.44298567    -1.88900
Cd954      Cd  0.30107427  0.81168936  0.49519961     1.59900
O955        O  0.38698283  0.76943462  0.40372660    -0.78400
O956        O  0.28255247  0.86030246  0.50742112    -0.77000
C957        C  0.39699886  0.86696120  0.42727212     0.85500
C958        C  0.27507283  0.82223408  0.35065140     0.85200
O959        O  0.28576510  0.88679120  0.45333596    -0.76000
C960        C  0.25255690  0.74793716  0.48534344     0.86000
O961        O  0.36536043  0.87403921  0.41459348    -0.76100
C962        C  0.37044335  0.74734961  0.38528552     0.86100
C963        C  0.37345361  0.78395273  0.52587139     0.86400
O964        O  0.38397053  0.77509414  0.49410148    -0.78500
C965        C  0.26351525  0.95060362  0.06120349     0.82700
N966        N  0.24647483  0.97526022  0.04179933    -0.75600
C967        C  0.23875502  0.97163016  0.50501721     0.85100
N968        N  0.24884652  0.94287814  0.48754022    -0.75600
C969        C  0.26570945  0.91782609  0.50659605     0.85200
N970        N  0.27279610  0.92202875  0.04327431    -0.77300
C971        C  0.51267826  0.96618174  0.35926774     0.05600
C972        C  0.48650959  0.98707000  0.34285664    -0.10500
C973        C  0.44951387  0.98376482  0.35171732     0.03100
C974        C  0.43861611  0.96037655  0.37762193    -0.09100
C975        C  0.46387136  0.93859883  0.39319773     0.05600
C976        C  0.50124574  0.94142722  0.38432551    -0.08500
H977        H  0.49466917  0.50451808  0.32167085     0.11200
H978        H  0.40972412  0.95691743  0.38294962     0.08700
H979        H  0.52080049  0.92385111  0.39547100     0.08600
O980        O  0.67854578  0.59618794  0.32235811    -0.76000
C981        C  0.69139022  0.63657583  0.20207285     0.85000
O982        O  0.56614290  0.58966779  0.24637768    -0.77100
O983        O  0.62512273  0.55088958  0.15906026    -0.78600
O984        O  0.70811701  0.99424307  0.23878885    -0.78400
O985        O  0.69953795  0.54386964  0.32374710    -0.77000
Zn986      Zn  0.65561636  0.60337179  0.27042453     1.55700
O987        O  0.70636832  0.52313171  0.18582358    -0.78400
Cd988      Cd  0.67449604  0.52266385  0.27622381     1.59700
Cd989      Cd  0.59870229  0.54854693  0.24373766     1.59600
O990        O  0.63371949  0.49240597  0.30155713    -0.78400
O991        O  0.65127044  0.55986312  0.24699785    -1.88900
Cd992      Cd  0.66851684  0.56166293  0.19476148     1.59900
O993        O  0.58273173  0.51920076  0.28622187    -0.78400
O994        O  0.68698395  0.61030312  0.18252926    -0.77000
C995        C  0.57259754  0.61677104  0.26289979     0.85500
C996        C  0.69467896  0.57226094  0.33928267     0.85200
O997        O  0.68375533  0.63678810  0.23661155    -0.76000
C998        C  0.71711322  0.99795752  0.20462381     0.86000
O999        O  0.60425639  0.62389573  0.27549047    -0.76100
C1000       C  0.59931416  0.49721676  0.30476618     0.86100
C1001       C  0.59608219  0.53396490  0.16408974     0.86400
O1002       O  0.58558946  0.52506441  0.19585347    -0.78500
C1003       C  0.70586985  0.70064709  0.12873970     0.82700
N1004       N  0.69661248  0.67206656  0.14667444    -0.75600
C1005       C  0.70374255  0.66785633  0.18334329     0.85100
N1006       N  0.72062919  0.69290708  0.20238354    -0.75600
C1007       C  0.73070215  0.72166576  0.18490352     0.85200
N1008       N  0.72293666  0.72530281  0.14812937    -0.77300
C1009       C  0.57705303  0.97820483  0.32999460    -0.10800
C1010       C  0.55016617  0.96919524  0.34675696    -0.12400
C1011       C  0.42665719  0.88984715  0.42180502    -0.10800
C1012       C  0.44853205  0.91064010  0.41246490    -0.12400
C1013       C  0.54293050  0.63962797  0.26842467    -0.10800
C1014       C  0.52107802  0.66044199  0.27774758    -0.12400
C1015       C  0.39270895  0.72831771  0.36008835    -0.10800
C1016       C  0.41955673  0.71926392  0.34330004    -0.12400
C1017       C  0.39764486  0.00002650  0.30605095    -0.10800
C1018       C  0.42174214  0.99758990  0.32841882    -0.12400
C1019       C  0.54783714  0.53032858  0.11149139    -0.10800
C1020       C  0.57193233  0.52788435  0.13386147    -0.12400
C1021       C  0.39251496  0.54961905  0.10994044    -0.10800
C1022       C  0.41939136  0.55864467  0.09317457    -0.12400
C1023       C  0.57201956  0.75007035  0.38380549    -0.10800
C1024       C  0.54795870  0.74766379  0.36139938    -0.12400
C1025       C  0.54283484  0.63805498  0.01810839    -0.10800
C1026       C  0.52096122  0.61726197  0.02744781    -0.12400
C1027       C  0.39754568  0.77778800  0.55611634    -0.10800
C1028       C  0.42160796  0.78021431  0.07851850    -0.12400
C1029       C  0.42670452  0.88826122  0.17151334    -0.10800
C1030       C  0.44854488  0.86744464  0.16217076    -0.12400
C1031       C  0.57686572  0.79951912  0.07982330    -0.10800
C1032       C  0.55002168  0.80858322  0.09660747    -0.12400
C1033       C  0.07691571  0.97833390  0.35999436    -0.10800
C1034       C  0.05005611  0.96930116  0.34320780    -0.12400
C1035       C  0.92669430  0.88973836  0.26822476    -0.10800
C1036       C  0.94855057  0.91054742  0.27755648    -0.12400
C1037       C  0.02107110  0.66061886  0.41237466    -0.10800
C1038       C  0.04291489  0.63979399  0.42169552    -0.12400
C1039       C  0.89268434  0.72837026  0.32991699    -0.10800
C1040       C  0.91954704  0.71934094  0.34670332    -0.12400
C1041       C  0.07203911  0.75005810  0.30609515    -0.10800
C1042       C  0.04797291  0.74765956  0.32849544    -0.12400
C1043       C  0.92160030  0.78009809  0.11143596    -0.10800
C1044       C  0.89754015  0.77771927  0.13384500    -0.12400
C1045       C  0.07687343  0.79945344  0.10999071    -0.10800
C1046       C  0.05000495  0.80846538  0.09319897    -0.12400
C1047       C  0.92162743  0.99761673  0.36139524    -0.10800
C1048       C  0.89756610  0.00002592  0.38380021    -0.12400
C1049       C  0.94842337  0.86715411  0.02756740    -0.10800
C1050       C  0.92657608  0.88798228  0.01826076    -0.12400
C1051       C  0.07200033  0.52777923  0.55613051    -0.10800
C1052       C  0.04793293  0.53017980  0.07852929    -0.12400
C1053       C  0.02107762  0.61724719  0.16237550    -0.10800
C1054       C  0.04294371  0.63805052  0.17170203    -0.12400
C1055       C  0.89264966  0.54953495  0.07994120    -0.10800
C1056       C  0.91951784  0.55855797  0.09672311    -0.12400
C1057       C  0.95698776  0.56158776  0.60927213     0.05600
C1058       C  0.96839708  0.58639798  0.63426996    -0.10500
C1059       C  0.00576264  0.58924873  0.64316614     0.03100
C1060       C  0.03103359  0.56744406  0.62766797    -0.09100
C1061       C  0.02015616  0.54400154  0.60181402     0.05600
C1062       C  0.98316756  0.54066746  0.59294045    -0.08500
H1063       H  0.94883275  0.60399796  0.64534714     0.11200
H1064       H  0.05992238  0.57092565  0.63300283     0.08700
H1065       H  0.97502336  0.52317685  0.57178567     0.08600
O1066       O  0.79107791  0.93163840  0.57234104    -0.76000
C1067       C  0.77809787  0.89128714  0.45204317     0.85000
O1068       O  0.90343919  0.93801111  0.49631177    -0.77100
O1069       O  0.84441836  0.97698040  0.90902275    -0.78600
O1070       O  0.76156227  0.53361041  0.48879740    -0.78400
O1071       O  0.77013917  0.98397457  0.57372953    -0.77000
Zn1072     Zn  0.81395106  0.92442246  0.52038571     1.55700
O1073       O  0.76323918  0.50471147  0.93584181    -0.78400
Cd1074     Cd  0.79517587  0.50514729  0.52619590     1.59700
Cd1075     Cd  0.87093924  0.97917978  0.49370827     1.59600
O1076       O  0.83598731  0.53537054  0.55149470    -0.78400
O1077       O  0.81835499  0.96792971  0.49696959    -1.88900
Cd1078     Cd  0.80107089  0.96616844  0.94474671     1.59900
O1079       O  0.88694561  0.00851014  0.53620095    -0.78400
O1080       O  0.78256214  0.91754978  0.93249709    -0.77000
C1081       C  0.89694340  0.91089098  0.51278480     0.85500
C1082       C  0.77497818  0.95558206  0.58926814     0.85200
O1083       O  0.78571403  0.89106659  0.48658692    -0.76000
C1084       C  0.75253599  0.52989763  0.45464078     0.86000
O1085       O  0.86527788  0.90379845  0.52537770    -0.76100
C1086       C  0.87038378  0.53052405  0.55471993     0.86100
C1087       C  0.87348172  0.99387093  0.91405616     0.86400
O1088       O  0.88404968  0.00267561  0.94582981    -0.78500
C1089       C  0.76358326  0.82722750  0.87871160     0.82700
N1090       N  0.77284094  0.85580899  0.89664356    -0.75600
C1091       C  0.76571181  0.86002139  0.93331027     0.85100
N1092       N  0.74882814  0.83497153  0.95235204    -0.75600
C1093       C  0.73875653  0.80621162  0.93487386     0.85200
N1094       N  0.74651972  0.80257255  0.89810167    -0.77300
C1095       C  0.01253367  0.81148629  0.58064230     0.05600
C1096       C  0.00111617  0.83629321  0.55564110    -0.10500
C1097       C  0.96374568  0.83914432  0.54675703     0.03100
C1098       C  0.93848046  0.81733810  0.56226679    -0.09100
C1099       C  0.94936639  0.79390150  0.58812442     0.05600
C1100       C  0.98635749  0.79056750  0.59698529    -0.08500
H1101       H  0.02067697  0.85389485  0.54455848     0.11200
H1102       H  0.90958872  0.82082041  0.55694584     0.08700
H1103       H  0.99450498  0.77308538  0.61814272     0.08600
O1104       O  0.17849706  0.68163324  0.61759345    -0.76000
C1105       C  0.19142139  0.64126435  0.73787796     0.85000
O1106       O  0.06616633  0.68800022  0.69376707    -0.77100
O1107       O  0.12516607  0.72695918  0.78089739    -0.78600
O1108       O  0.20804634  0.78360329  0.70116492    -0.78400
O1109       O  0.19940684  0.73398226  0.61619970    -0.77000
Zn1110     Zn  0.15559169  0.67442088  0.66953385     1.55700
O1111       O  0.20638549  0.75469555  0.75411598    -0.78400
Cd1112     Cd  0.17439528  0.75515683  0.66375552     1.59700
Cd1113     Cd  0.09867305  0.72916318  0.69624985     1.59600
O1114       O  0.13354086  0.78536967  0.63848977    -0.78400
O1115       O  0.15124661  0.71792025  0.69296986    -1.88900
Cd1116     Cd  0.16852967  0.71615950  0.74519139     1.59900
O1117       O  0.08262343  0.75840420  0.65370174    -0.78400
O1118       O  0.18700694  0.66753372  0.75742221    -0.77000
C1119       C  0.07260594  0.66092226  0.67719229     0.85500
C1120       C  0.19459225  0.70558181  0.60066704     0.85200
O1121       O  0.18377671  0.64104138  0.70334044    -0.76000
C1122       C  0.21709544  0.77988225  0.73531713     0.86000
O1123       O  0.10423932  0.65384659  0.66450737    -0.76100
C1124       C  0.09915687  0.78046087  0.63521758     0.86100
C1125       C  0.09613846  0.74389653  0.77585585     0.86400
O1126       O  0.08561708  0.75274469  0.74408214    -0.78500
C1127       C  0.20596170  0.57722073  0.81121557     0.82700
N1128       N  0.19669752  0.60579862  0.79328236    -0.75600
C1129       C  0.20379241  0.60999715  0.75660738     0.85100
N1130       N  0.22064650  0.58493945  0.73755872    -0.75600
C1131       C  0.23072521  0.55618424  0.75503763     0.85200
N1132       N  0.22299800  0.55255645  0.79181869    -0.77300
C1133       C  0.95701400  0.71629942  0.85925905     0.05600
C1134       C  0.96840888  0.69149471  0.88427077    -0.10500
C1135       C  0.00577374  0.68862691  0.89316481     0.03100
C1136       C  0.03105785  0.71041535  0.87765366    -0.09100
C1137       C  0.02019234  0.73385370  0.85178880     0.05600
C1138       C  0.98320582  0.73720157  0.84291525    -0.08500
H1139       H  0.94883159  0.67390630  0.89535817     0.11200
H1140       H  0.05994393  0.70692208  0.88298571     0.08700
H1141       H  0.97507316  0.75468476  0.82175441     0.08600
O1142       O  0.78589404  0.88681576  0.73661132    -0.76000
C1143       C  0.77497751  0.82226473  0.83924939     0.85000
O1144       O  0.90343482  0.83981915  0.74610998    -0.77100
O1145       O  0.83602932  0.74246872  0.80141401    -0.78600
O1146       O  0.76322327  0.77315032  0.68578399    -0.78400
O1147       O  0.78262182  0.86032911  0.68252681    -0.77000
Zn1148     Zn  0.81403892  0.85341201  0.77041275     1.55700
O1149       O  0.76156001  0.74423979  0.73873267    -0.78400
Cd1150     Cd  0.80107662  0.81169105  0.69473245     1.59700
Cd1151     Cd  0.87091231  0.79866384  0.74366685     1.59600
O1152       O  0.84444489  0.80088559  0.65903408    -0.78400
O1153       O  0.81834812  0.80992144  0.74695530    -1.88900
Cd1154     Cd  0.79518564  0.77268980  0.77615745     1.59900
O1155       O  0.88393915  0.77503885  0.69585404    -0.78400
O1156       O  0.77016213  0.79386626  0.82371082    -0.77000
C1157       C  0.89702264  0.86687842  0.76273344     0.85500
C1158       C  0.77823450  0.88659897  0.70207757     0.85200
O1159       O  0.79109766  0.84620703  0.82233679    -0.76000
C1160       C  0.75251977  0.74795758  0.70457817     0.86000
O1161       O  0.86540524  0.87394807  0.77546244    -0.76100
C1162       C  0.87344350  0.78390793  0.66407932     0.86100
C1163       C  0.87041143  0.74737692  0.80469826     0.86400
O1164       O  0.88695177  0.76944007  0.78622992    -0.78500
C1165       C  0.76364782  0.95063608  0.62874821     0.82700
N1166       N  0.77293354  0.92206430  0.64667977    -0.75600
C1167       C  0.76586564  0.91787029  0.68335995     0.85100
N1168       N  0.74901504  0.94292528  0.70241648    -0.75600
C1169       C  0.73891447  0.97167421  0.68493818     0.86000
N1170       N  0.74661698  0.97529840  0.64815173    -0.77300
C1171       C  0.01259135  0.96625107  0.83065634     0.05600
C1172       C  0.98639754  0.98715928  0.84698394    -0.10500
C1173       C  0.94941104  0.98379922  0.83811434     0.03100
C1174       C  0.93854996  0.96034271  0.81226777    -0.09100
C1175       C  0.96383970  0.93855449  0.79676943     0.05600
C1176       C  0.00120195  0.94143092  0.80566354    -0.08500
H1177       H  0.99452960  0.50465892  0.86813202     0.11200
H1178       H  0.90966633  0.95684130  0.80693565     0.08700
H1179       H  0.02078140  0.92384151  0.79458776     0.08600
O1180       O  0.18375031  0.63679482  0.95333297    -0.76000
C1181       C  0.19459563  0.57226834  0.85068598     0.85000
O1182       O  0.06610605  0.58981038  0.94371553    -0.77100
O1183       O  0.13356884  0.49249065  0.88845183    -0.78600
O1184       O  0.20629140  0.52312786  0.00412367    -0.78400
O1185       O  0.18697391  0.61030873  0.00741884    -0.77000
Zn1186     Zn  0.15555493  0.60341392  0.91953676     1.55700
O1187       O  0.20795841  0.99422241  0.95117245    -0.78400
Cd1188     Cd  0.16847423  0.56168405  0.99519653     1.59700
Cd1189     Cd  0.09862310  0.54864999  0.94625779     1.59600
O1190       O  0.12512051  0.55088571  0.03091728    -0.78400
O1191       O  0.15119545  0.55991617  0.94297479    -1.88900
Cd1192     Cd  0.17437899  0.52270184  0.91375730     1.59900
O1193       O  0.08556180  0.52509819  0.99411336    -0.78400
O1194       O  0.19943641  0.54387841  0.86623179    -0.77000
C1195       C  0.07256380  0.61690531  0.92717622     0.85500
C1196       C  0.19139757  0.63657528  0.98786950     0.85200
O1197       O  0.17846709  0.59620505  0.86759735    -0.76000
C1198       C  0.21698017  0.99793224  0.98533068     0.86000
O1199       O  0.10420757  0.62399045  0.91452233    -0.76100
C1200       C  0.09609237  0.53394491  0.02588453     0.86100
C1201       C  0.09917439  0.49734158  0.88522139     0.86400
O1202       O  0.08261053  0.51935303  0.90374208    -0.78500
C1203       C  0.20595462  0.70062577  0.56119562     0.82700
N1204       N  0.22301248  0.72527966  0.54179966    -0.75600
C1205       C  0.23075271  0.72164450  0.00502209     0.85100
N1206       N  0.22066152  0.69289092  0.98754399    -0.75600
C1207       C  0.20378189  0.66784333  0.00659244     0.85200
N1208       N  0.19667782  0.67205021  0.54326430    -0.77300
C1209       C  0.51256597  0.81165225  0.60916930     0.05600
C1210       C  0.50118411  0.83652125  0.63410422    -0.10500
C1211       C  0.46382363  0.83941214  0.64299626     0.03100
C1212       C  0.43853104  0.81759179  0.62755059    -0.09100
C1213       C  0.44938899  0.79407917  0.60176776     0.05600
C1214       C  0.48637074  0.79070527  0.59290316    -0.08500
H1215       H  0.52076533  0.85413117  0.64513550     0.11200
H1216       H  0.40964563  0.82110177  0.63287502     0.08700
H1217       H  0.49449766  0.77316228  0.57179706     0.08600
O1218       O  0.68370358  0.64102726  0.48661667    -0.76000
C1219       C  0.69449887  0.70559730  0.58926421     0.85000
O1220       O  0.56609232  0.68800122  0.49605810    -0.77100
O1221       O  0.63350368  0.78538804  0.55133880    -0.78600
O1222       O  0.70627145  0.75471116  0.93576215    -0.78400
O1223       O  0.68698122  0.66751638  0.93253373    -0.77000
Zn1224     Zn  0.65549672  0.67441370  0.52039387     1.55700
O1225       O  0.70794492  0.78361517  0.48871211    -0.78400
Cd1226     Cd  0.66846966  0.71613645  0.94472457     1.59700
Cd1227     Cd  0.59861979  0.72916058  0.49363623     1.59600
O1228       O  0.62509882  0.72689863  0.90901813    -0.78400
O1229       O  0.65118457  0.71790510  0.49693747    -1.88900
Cd1230     Cd  0.67433879  0.75514918  0.52612969     1.59900
O1231       O  0.58562214  0.75278801  0.94581336    -0.78400
O1232       O  0.69933253  0.73398889  0.57371415    -0.77000
C1233       C  0.57250898  0.66092272  0.51264479     0.85500
C1234       C  0.69138251  0.64124970  0.45208759     0.85200
O1235       O  0.67838855  0.68164898  0.57234749    -0.76000
C1236       C  0.71696631  0.77990814  0.45455377     0.86000
O1237       O  0.60412858  0.65384666  0.52537296    -0.76100
C1238       C  0.59611186  0.74389386  0.91404711     0.86100
C1239       C  0.59912417  0.78048296  0.55462822     0.86400
O1240       O  0.58257915  0.75840191  0.53618661    -0.78500
C1241       C  0.70601707  0.57722150  0.87876008     0.82700
N1242       N  0.72304961  0.55256429  0.89816945    -0.75600
C1243       C  0.73074641  0.55618899  0.93495688     0.85100
N1244       N  0.72063768  0.58493506  0.95243455    -0.75600
C1245       C  0.70378140  0.60998662  0.93337258     0.85200
N1246       N  0.69671964  0.60579077  0.89668917    -0.77300
C1247       C  0.45687270  0.56168234  0.58065827     0.05600
C1248       C  0.48306026  0.54081165  0.59706529    -0.10500
C1249       C  0.52005161  0.54414092  0.58819890     0.03100
C1250       C  0.53092469  0.56753518  0.56229086    -0.09100
C1251       C  0.50564855  0.58929532  0.54671872     0.05600
C1252       C  0.46827916  0.58644360  0.55559831    -0.08500
H1253       H  0.47491780  0.52335810  0.61825196     0.11200
H1254       H  0.55981478  0.57101288  0.55695611     0.08700
H1255       H  0.44870803  0.60400669  0.54445648     0.08600
O1256       O  0.28591631  0.89103613  0.70330835    -0.76000
C1257       C  0.27488636  0.95557248  0.60067128     0.85000
O1258       O  0.40345290  0.93818286  0.69363522    -0.77100
O1259       O  0.33586212  0.53542247  0.63839574    -0.78600
O1260       O  0.26324074  0.50470562  0.75414321    -0.78400
O1261       O  0.28263765  0.91751896  0.75739091    -0.77000
Zn1262     Zn  0.31401318  0.92447532  0.66949706     1.55700
O1263       O  0.26150275  0.53360267  0.70118370    -0.78400
Cd1264     Cd  0.30108551  0.96616871  0.74518055     1.59700
Cd1265     Cd  0.37087972  0.97930084  0.69621416     1.59600
O1266       O  0.34448526  0.97694850  0.78087066    -0.78400
O1267       O  0.31832142  0.96797399  0.69294351    -1.88900
Cd1268     Cd  0.29508920  0.50517029  0.66372944     1.59900
O1269       O  0.38394774  0.00285014  0.74406867    -0.78400
O1270       O  0.27002735  0.98396223  0.61621240    -0.77000
C1271       C  0.39702832  0.91110505  0.67704880     0.85500
C1272       C  0.27826166  0.89124464  0.73784226     0.85200
O1273       O  0.29104538  0.93165214  0.61758175    -0.76000
C1274       C  0.25251056  0.52988973  0.73534984     0.86000
O1275       O  0.36538790  0.90399301  0.66440294    -0.76100
C1276       C  0.37348990  0.99392242  0.77583410     0.86100
C1277       C  0.37026364  0.53060288  0.63516989     0.86400
O1278       O  0.38684910  0.00861217  0.65370202    -0.78500
C1279       C  0.26373431  0.82717993  0.81116693     0.82700
N1280       N  0.24667006  0.80252785  0.79177034    -0.75600
C1281       C  0.23892715  0.80616317  0.75499121     0.85100
N1282       N  0.24902290  0.83491535  0.73751249    -0.75600
C1283       C  0.26590915  0.85996145  0.75656055     0.85200
N1284       N  0.27301418  0.85575436  0.79323417    -0.77300
C1285       C  0.45701494  0.71621157  0.83073267     0.05600
C1286       C  0.46841279  0.69134654  0.80579858    -0.10500
C1287       C  0.50577561  0.68847450  0.79690412     0.03100
C1288       C  0.53105430  0.71031025  0.81234465    -0.09100
C1289       C  0.52018389  0.73381118  0.83813446     0.05600
C1290       C  0.48320009  0.73716914  0.84699965    -0.08500
H1291       H  0.44884152  0.67372255  0.79477109     0.11200
H1292       H  0.55994010  0.70681409  0.80702101     0.08700
H1293       H  0.47506567  0.75470366  0.86810941     0.08600
O1294       O  0.29115481  0.84618902  0.86758415    -0.76000
C1295       C  0.27811317  0.88656623  0.98787147     0.85000
O1296       O  0.40345001  0.83986340  0.94380721    -0.77100
O1297       O  0.34443997  0.80090908  0.03090515    -0.78600
O1298       O  0.26158656  0.74422581  0.95118756    -0.78400
O1299       O  0.27024311  0.79383896  0.86619325    -0.77000
Zn1300     Zn  0.31401083  0.85342999  0.91955287     1.55700
O1301       O  0.26326013  0.77312754  0.00413947    -0.78400
Cd1302     Cd  0.29522105  0.77268116  0.91378371     1.59700
Cd1303     Cd  0.37094034  0.79869176  0.94626722     1.59600
O1304       O  0.33606372  0.74244021  0.88857542    -0.78400
O1305       O  0.31836459  0.80992974  0.94298568    -1.88900
Cd1306     Cd  0.30107428  0.81168937  0.99519962     1.59900
O1307       O  0.38698282  0.76943457  0.90372661    -0.78400
O1308       O  0.28255255  0.86030251  0.00742117    -0.77000
C1309       C  0.39699888  0.86696116  0.92727212     0.85500
C1310       C  0.27507282  0.82223410  0.85065141     0.85200
O1311       O  0.28576517  0.88679123  0.95333600    -0.76000
C1312       C  0.25255686  0.74793722  0.98534340     0.86000
O1313       O  0.36536046  0.87403919  0.91459349    -0.76100
C1314       C  0.37044333  0.74734959  0.88528551     0.86100
C1315       C  0.37345358  0.78395265  0.02587139     0.86400
O1316       O  0.38397051  0.77509409  0.99410147    -0.78500
C1317       C  0.26351521  0.95060357  0.56120346     0.82700
N1318       N  0.24647483  0.97526019  0.54179929    -0.75600
C1319       C  0.23875502  0.97163017  0.00501724     0.85100
N1320       N  0.24884657  0.94287816  0.98754026    -0.75600
C1321       C  0.26570953  0.91782614  0.00659609     0.85200
N1322       N  0.27279602  0.92202868  0.54327427    -0.77300
C1323       C  0.51267839  0.96618167  0.85926772     0.05600
C1324       C  0.48650961  0.98706968  0.84285691    -0.10500
C1325       C  0.44951403  0.98376477  0.85171722     0.03100
C1326       C  0.43861608  0.96037645  0.87762187    -0.09100
C1327       C  0.46387153  0.93859873  0.89319768     0.05600
C1328       C  0.50124548  0.94142748  0.88432526    -0.08500
H1329       H  0.49466954  0.50451870  0.82167009     0.11200
H1330       H  0.40972500  0.95691744  0.88294938     0.08700
H1331       H  0.52080184  0.92384992  0.89547170     0.08600
O1332       O  0.67854584  0.59618792  0.82235809    -0.76000
C1333       C  0.69139021  0.63657586  0.70207287     0.85000
O1334       O  0.56614291  0.58966772  0.74637773    -0.77100
O1335       O  0.62512275  0.55088958  0.65906025    -0.78600
O1336       O  0.70811696  0.99424308  0.73878884    -0.78400
O1337       O  0.69953806  0.54386963  0.82374708    -0.77000
Zn1338     Zn  0.65561637  0.60337177  0.77042454     1.55700
O1339       O  0.70636837  0.52313169  0.68582360    -0.78400
Cd1340     Cd  0.67449609  0.52266383  0.77622383     1.59700
Cd1341     Cd  0.59870233  0.54854689  0.74373767     1.59600
O1342       O  0.63371956  0.49240597  0.80155720    -0.78400
O1343       O  0.65127048  0.55986309  0.74699785    -1.88900
Cd1344     Cd  0.66851688  0.56166292  0.69476148     1.59900
O1345       O  0.58273178  0.51920066  0.78622183    -0.78400
O1346       O  0.68698398  0.61030314  0.68252928    -0.77000
C1347       C  0.57259754  0.61677097  0.76289984     0.85500
C1348       C  0.69467905  0.57226093  0.83928264     0.85200
O1349       O  0.68375528  0.63678812  0.73661157    -0.76000
C1350       C  0.71711317  0.99795754  0.70462381     0.86000
O1351       O  0.60425638  0.62389568  0.77549052    -0.76100
C1352       C  0.59931422  0.49721671  0.80476621     0.86100
C1353       C  0.59608220  0.53396491  0.66408974     0.86400
O1354       O  0.58558950  0.52506441  0.69585347    -0.78500
C1355       C  0.70586989  0.70064712  0.62873972     0.82700
N1356       N  0.69661247  0.67206660  0.64667446    -0.75600
C1357       C  0.70374253  0.66785636  0.68334332     0.85100
N1358       N  0.72062920  0.69290710  0.70238356    -0.75600
C1359       C  0.73070221  0.72166577  0.68490353     0.85200
N1360       N  0.72293673  0.72530282  0.64812939    -0.77300
C1361       C  0.57705309  0.97820480  0.82999462    -0.10800
C1362       C  0.55016626  0.96919519  0.84675699    -0.12400
C1363       C  0.42665723  0.88984710  0.92180501    -0.10800
C1364       C  0.44853210  0.91064004  0.91246487    -0.12400
C1365       C  0.54293048  0.63962791  0.76842471    -0.10800
C1366       C  0.52107799  0.66044193  0.77774758    -0.12400
C1367       C  0.39270891  0.72831769  0.86008835    -0.10800
C1368       C  0.41955667  0.71926389  0.84330002    -0.12400
C1369       C  0.39764493  0.00002645  0.80605087    -0.10800
C1370       C  0.42174222  0.99758984  0.82841873    -0.12400
C1371       C  0.54783711  0.53032865  0.61149146    -0.10800
C1372       C  0.57193230  0.52788441  0.63386153    -0.12400
C1373       C  0.39251492  0.54961911  0.60994033    -0.10800
C1374       C  0.41939134  0.55864473  0.59317446    -0.12400
C1375       C  0.57201950  0.75007027  0.88380554    -0.10800
C1376       C  0.54795865  0.74766372  0.86139942    -0.12400
C1377       C  0.54283489  0.63805500  0.51810832    -0.10800
C1378       C  0.52096129  0.61726197  0.52744773    -0.12400
C1379       C  0.39754567  0.77778787  0.05611636    -0.10800
C1380       C  0.42160799  0.78021438  0.57851847    -0.12400
C1381       C  0.42670460  0.88826122  0.67151338    -0.10800
C1382       C  0.44854494  0.86744461  0.66217082    -0.12400
C1383       C  0.57686581  0.79951918  0.57982330    -0.10800
C1384       C  0.55002175  0.80858323  0.59660745    -0.12400
C1385       C  0.07691567  0.97833394  0.85999437    -0.10800
C1386       C  0.05005610  0.96930119  0.84320778    -0.12400
C1387       C  0.92669431  0.88973843  0.76822472    -0.10800
C1388       C  0.94855060  0.91054749  0.77755639    -0.12400
C1389       C  0.02107110  0.66061887  0.91237473    -0.10800
C1390       C  0.04291488  0.63979400  0.92169560    -0.12400
C1391       C  0.89268437  0.72837033  0.82991705    -0.10800
C1392       C  0.91954707  0.71934101  0.84670338    -0.12400
C1393       C  0.07203915  0.75005816  0.80609521    -0.10800
C1394       C  0.04797296  0.74765960  0.82849551    -0.12400
C1395       C  0.92160036  0.78009813  0.61143603    -0.10800
C1396       C  0.89754020  0.77771933  0.63384507    -0.12400
C1397       C  0.07687344  0.79945350  0.60999074    -0.10800
C1398       C  0.05000498  0.80846542  0.59319897    -0.12400
C1399       C  0.92162741  0.99761675  0.86139517    -0.10800
C1400       C  0.89756606  0.00002595  0.88380013    -0.12400
C1401       C  0.94842337  0.86715409  0.52756739    -0.10800
C1402       C  0.92657607  0.88798225  0.51826078    -0.12400
C1403       C  0.07200038  0.52777911  0.05613055    -0.10800
C1404       C  0.04793287  0.53017991  0.57852921    -0.12400
C1405       C  0.02107753  0.61724725  0.66237556    -0.10800
C1406       C  0.04294361  0.63805056  0.67170212    -0.12400
C1407       C  0.89264951  0.54953500  0.57994128    -0.10800
C1408       C  0.91951771  0.55855801  0.59672315    -0.12400
loop_ 
_geom_bond_atom_site_label_1 
_geom_bond_atom_site_label_2 
_geom_bond_distance 
_geom_bond_site_symmetry_2 
_ccdc_geom_bond_type 
C1            C2   1.412       .  A
C1            C6   1.407       .  A
C1          C352   1.451       .  S
C2            C3   1.411   1_655  A
C2            H7   1.085       .  S
C3            C4   1.394       .  A
C3          C349   1.439       .  S
C4            C5   1.389       .  A
C4            H8   1.085       .  S
C5            C6   1.399   1_455  A
C5          C348   1.435       .  S
C6            H9   1.083       .  S
O10          C26   1.286       .  A
O10         Zn16   2.083       .  S
C11          O27   1.284       .  A
C11         O376   1.283       .  A
C11         C387   1.500       .  S
O12          C25   1.267   1_556  A
O12         Cd19   2.042       .  S
O13          C31   1.276       .  A
O13         Cd22   2.095       .  S
O14          C28   1.291       .  A
O14         Cd18   2.161   1_556  S
O15          C26   1.286       .  A
O15        Cd722   2.131       .  S
Zn16         O27   2.092   1_554  S
Zn16         O29   2.064       .  S
Zn16         O21   1.953   1_554  S
O17         C380   1.283       .  A
O17        Cd726   2.105   1_545  S
Cd18         O20   2.135       .  S
Cd18        O719   2.131   1_545  S
Cd18        O725   2.022   1_544  S
Cd19         O23   2.028   1_556  S
Cd19        O384   2.035       .  S
Cd19         O21   1.983       .  S
O20          C30   1.281       .  A
O21        Cd722   2.022   1_556  S
O21        Cd374   1.998       .  S
Cd22         O24   2.118       .  S
Cd22        O721   2.105       .  S
Cd22        O373   1.998       .  S
O23         C734   1.267       .  A
O24         C363   1.283       .  A
C25         C346   1.438       .  S
C25          O29   1.279       .  A
C26         C109   1.504       .  S
C28         O369   1.283       .  A
C28         C539   1.505       .  S
C30         C351   1.445       .  S
C30         O727   1.267       .  A
C31         C344   1.430       .  S
C31          O32   1.266       .  A
O32        Cd371   2.035       .  S
C33          C87   1.504       .  S
C33          N34   1.364       .  A
C33          N38   1.367       .  A
N34          C35   1.366       .  A
C35         C363   1.500       .  S
C35          N36   1.370       .  A
N36          C37   1.370       .  A
C37         C532   1.506       .  S
C37          N38   1.372       .  A
C39          C40   1.412       .  A
C39          C44   1.407   1_455  A
C39         C342   1.452       .  S
C40          C41   1.411   1_455  A
C40          H45   1.085       .  S
C41          C42   1.394       .  A
C41         C345   1.439       .  S
C42          C43   1.389       .  A
C42          H46   1.085       .  S
C43          C44   1.399       .  A
C43         C339   1.435       .  S
C44          H47   1.083       .  S
O48          C64   1.286       .  A
O48         Zn54   2.083       .  S
C49          O65   1.284       .  A
C49          O62   1.283       .  A
C49          C73   1.500       .  S
O50          C63   1.267       .  A
O50         Cd57   2.042       .  S
O51          C69   1.276       .  A
O51         Cd60   2.095       .  S
O52          C66   1.291       .  A
O52         Cd56   2.161       .  S
O53          C64   1.286       .  A
O53         Cd56   2.131       .  S
Zn54         O65   2.091       .  S
Zn54         O67   2.064       .  S
Zn54         O59   1.952       .  S
O55          C66   1.283       .  A
O55         Cd60   2.105       .  S
Cd56         O58   2.135       .  S
Cd56         O59   2.022       .  S
Cd57         O61   2.028       .  S
Cd57         O70   2.035       .  S
Cd57         O59   1.982       .  S
O58          C68   1.281       .  A
O59         Cd60   1.998       .  S
Cd60         O62   2.117       .  S
O61          C68   1.267       .  A
C63         C350   1.438       .  S
C63          O67   1.279       .  A
C64         C147   1.504       .  S
C66         C225   1.506       .  S
C68         C341   1.445       .  S
C69         C337   1.430       .  S
C69          O70   1.266       .  A
C71         C125   1.504       .  S
C71          N72   1.364       .  A
C71          N76   1.367       .  A
N72          C73   1.366       .  A
C73          N74   1.370       .  A
N74          C75   1.370       .  A
C75         C218   1.506       .  S
C75          N76   1.372       .  A
C77          C78   1.412       .  A
C77          C82   1.407       .  A
C77         C336   1.451       .  S
C78          C79   1.411   1_655  A
C78          H83   1.085       .  S
C79          C80   1.394       .  A
C79         C333   1.439       .  S
C80          C81   1.389       .  A
C80          H84   1.085       .  S
C81          C82   1.399   1_455  A
C81         C338   1.435       .  S
C82          H85   1.083       .  S
O86         C102   1.284       .  A
O86         Zn92   2.091       .  S
C87         O103   1.286       .  A
C87         O100   1.286       .  A
O88         C101   1.267       .  A
O88         Cd95   2.042       .  S
O89         C107   1.281       .  A
O89         Cd98   2.135       .  S
O90         C104   1.283       .  A
O90         Cd94   2.106       .  S
O91         C102   1.283       .  A
O91         Cd94   2.117       .  S
Zn92        O103   2.083       .  S
Zn92        O105   2.064       .  S
Zn92         O97   1.952       .  S
O93         C104   1.291       .  A
O93         Cd98   2.161       .  S
Cd94         O96   2.095       .  S
Cd94         O97   1.998       .  S
Cd95         O99   2.035       .  S
Cd95        O108   2.028       .  S
Cd95         O97   1.982       .  S
O96         C106   1.276       .  A
O97         Cd98   2.022       .  S
Cd98        O100   2.131       .  S
O99         C106   1.266       .  A
C101        C331   1.438       .  S
C101        O105   1.279       .  A
C102        C111   1.500       .  S
C104        C303   1.506       .  S
C106        C340   1.430       .  S
C107        C335   1.445       .  S
C107        O108   1.267       .  A
C109        N110   1.364       .  A
C109        N114   1.367       .  A
N110        C111   1.366       .  A
C111        N112   1.370       .  A
N112        C113   1.370       .  A
C113        C294   1.506       .  S
C113        N114   1.372       .  A
C115        C116   1.407   1_455  A
C115        C120   1.412       .  A
C115        C330   1.451       .  S
C116        C117   1.399       .  A
C116        H825   1.083       .  S
C117        C118   1.389       .  A
C117        C343   1.435       .  S
C118        C119   1.394       .  A
C118        H122   1.085       .  S
C119        C120   1.411   1_655  A
C119        C332   1.439       .  S
C120        H123   1.085       .  S
H121        C820   1.083   1_545  S
O124        C140   1.284       .  A
O124       Zn130   2.091       .  S
C125        O141   1.286       .  A
C125        O138   1.286       .  A
O126        C139   1.267       .  A
O126       Cd133   2.042       .  S
O127        C145   1.281       .  A
O127       Cd136   2.134   1_565  S
O128        C846   1.283   1_545  A
O128       Cd132   2.105       .  S
O129        C140   1.283       .  A
O129       Cd132   2.118       .  S
Zn130       O141   2.083       .  S
Zn130       O143   2.064       .  S
Zn130       O135   1.952       .  S
O131        C142   1.291       .  A
O131       Cd840   2.161       .  S
Cd132       O134   2.095       .  S
Cd132       O135   1.998       .  S
Cd133       O137   2.035       .  S
Cd133       O146   2.028       .  S
Cd133       O135   1.982       .  S
O134        C144   1.276       .  A
O135       Cd136   2.022       .  S
Cd136       O138   2.131       .  S
Cd136       O835   2.161   1_545  S
O137        C144   1.266       .  A
C139        C334   1.438       .  S
C139        O143   1.279       .  A
C140        C151   1.500       .  S
C142        O832   1.283       .  A
C142        C263   1.505       .  S
C144        C347   1.430       .  S
C145       C1033   1.445       .  S
C145        O146   1.267   1_565  A
C147        N148   1.367       .  A
C147        N152   1.364       .  A
N148        C501   1.372       .  A
C149        C256   1.506       .  S
C149        N150   1.370       .  A
C149        N500   1.372       .  A
N150        C151   1.370       .  A
C151        N504   1.366       .  A
N152        C503   1.366       .  A
C153        C154   1.412       .  A
C153        C158   1.407       .  A
C153        C328   1.451       .  S
C154        C155   1.411       .  A
C154        H159   1.085       .  S
C155        C156   1.394       .  A
C155        C326   1.439       .  S
C156        C157   1.389       .  A
C156        H160   1.085       .  S
C157        C158   1.399       .  A
C157        C324   1.435       .  S
C158        H161   1.083       .  S
O162        C178   1.284       .  A
O162       Zn168   2.091   1_556  S
C163        O179   1.286       .  A
C163        O176   1.286       .  A
C163        C299   1.504       .  S
O164        C177   1.267   1_556  A
O164       Cd171   2.042       .  S
O165        C183   1.281       .  A
O165       Cd174   2.134       .  S
O166        C532   1.283       .  A
O166       Cd170   2.106       .  S
O167        C530   1.283       .  A
O167       Cd170   2.117       .  S
Zn168       O179   2.083       .  S
Zn168       O181   2.064       .  S
Zn168       O173   1.952   1_554  S
O169        C180   1.291       .  A
O169       Cd174   2.161   1_556  S
Cd170       O172   2.095       .  S
Cd170       O525   1.998       .  S
Cd171       O184   2.028   1_556  S
Cd171       O527   2.035       .  S
Cd171       O173   1.982       .  S
O172        C182   1.276       .  A
O173       Cd174   2.022   1_556  S
O173       Cd522   1.998       .  S
Cd174       O176   2.131       .  S
O175        C182   1.266       .  A
O175       Cd523   2.035       .  S
C177        C321   1.438       .  S
C177        O181   1.279       .  A
C178        O519   1.283       .  A
C178        C541   1.500       .  S
C180        O518   1.283       .  A
C180        C389   1.506       .  S
C182        C319   1.430       .  S
C183        C327   1.445       .  S
C183        O184   1.267       .  A
C185        C292   1.504       .  S
C185        N186   1.367       .  A
C185        N190   1.364       .  A
N186        C187   1.372       .  A
C187        C380   1.505       .  S
C187        N188   1.370       .  A
N188        C189   1.370       .  A
C189        C530   1.500       .  S
C189        N190   1.366       .  A
C191        C192   1.407       .  A
C191        C196   1.412       .  A
C191        C318   1.452       .  S
C192        C193   1.399       .  A
C192        H197   1.083       .  S
C193        C194   1.389       .  A
C193        C315   1.435       .  S
C194        C195   1.394       .  A
C194        H198   1.085       .  S
C195        C196   1.411       .  A
C195        C322   1.439       .  S
C196        H199   1.085       .  S
O200        C216   1.284       .  A
O200       Zn206   2.092       .  S
C201        O217   1.286       .  A
C201        O214   1.286       .  A
C201        C261   1.504       .  S
O202        C215   1.267       .  A
O202       Cd209   2.042       .  S
O203        C221   1.281       .  A
O203       Cd212   2.135       .  S
O204        C218   1.283       .  A
O204       Cd912   2.106   1_545  S
O205        C216   1.283       .  A
O205       Cd208   2.118       .  S
Zn206       O217   2.083       .  S
Zn206       O219   2.063       .  S
Zn206       O211   1.952       .  S
O207        C218   1.291       .  A
O207       Cd212   2.161       .  S
Cd208       O210   2.096       .  S
Cd208       O908   2.106       .  S
Cd208       O211   1.999       .  S
Cd209       O213   2.035       .  S
Cd209       O222   2.028       .  S
Cd209       O211   1.982       .  S
O210        C220   1.276       .  A
O211       Cd916   2.022       .  S
Cd212       O918   2.131   1_545  S
Cd212       O915   2.022   1_545  S
O213        C220   1.266       .  A
O214       Cd916   2.131       .  S
C215        C325   1.438       .  S
C215        O219   1.279       .  A
C216        C227   1.500       .  S
C220        C313   1.430       .  S
C221        C317   1.445       .  S
C221        O926   1.267       .  A
O222        C925   1.267       .  A
C223        C254   1.504       .  S
C223        N224   1.367       .  A
C223        N228   1.364       .  A
N224        C225   1.372       .  A
C225        N226   1.370       .  A
N226        C227   1.370       .  A
C227        N228   1.366       .  A
C229        C230   1.412       .  A
C229        C234   1.407       .  A
C229        C312   1.451       .  S
C230        C231   1.411       .  A
C230        H235   1.085       .  S
C231        C232   1.394       .  A
C231        C310   1.439       .  S
C232        C233   1.389       .  A
C232        H236   1.085       .  S
C233        C234   1.399       .  A
C233        C320   1.435       .  S
C234        H237   1.083       .  S
O238        C254   1.286       .  A
O238       Zn244   2.083       .  S
C239        O255   1.284       .  A
C239        O252   1.283       .  A
C239        C265   1.500       .  S
O240        C253   1.267       .  A
O240       Cd247   2.042       .  S
O241        C259   1.276       .  A
O241       Cd250   2.095       .  S
O242        C256   1.291       .  A
O242       Cd246   2.161       .  S
O243        C254   1.286       .  A
O243       Cd246   2.131       .  S
Zn244       O255   2.092       .  S
Zn244       O257   2.064       .  S
Zn244       O249   1.952       .  S
O245        C256   1.283       .  A
O245       Cd250   2.105       .  S
Cd246       O248   2.135       .  S
Cd246       O249   2.022       .  S
Cd247       O251   2.028       .  S
Cd247       O260   2.035       .  S
Cd247       O249   1.982       .  S
O248        C258   1.281       .  A
O249       Cd250   1.998       .  S
Cd250       O252   2.117       .  S
O251        C258   1.267       .  A
C253        C307   1.438       .  S
C253        O257   1.279       .  A
C258        C311   1.445       .  S
C259        C323   1.430       .  S
C259        O260   1.266       .  A
C261        N262   1.367       .  A
C261        N266   1.364       .  A
N262        C615   1.372       .  A
C263        N264   1.370       .  A
C263        N614   1.372       .  A
N264        C265   1.370       .  A
C265        N618   1.366       .  A
N266        C617   1.366       .  A
C267        C268   1.407       .  A
C267        C272   1.412       .  A
C267        C306   1.452       .  S
C268        C269   1.399       .  A
C268        H977   1.083       .  S
C269        C270   1.389       .  A
C269        C314   1.435       .  S
C270        C271   1.394       .  A
C270        H274   1.085       .  S
C271        C272   1.411       .  A
C271        C308   1.439       .  S
C272        H275   1.085       .  S
H273        C972   1.083   1_545  S
O276        C292   1.286       .  A
O276       Zn282   2.083       .  S
C277        O293   1.284       .  A
C277        O290   1.283       .  A
C277        C301   1.500       .  S
O278        C291   1.267       .  A
O278       Cd285   2.042       .  S
O279        C297   1.276       .  A
O279       Cd288   2.096       .  S
O280        C294   1.291       .  A
O280       Cd988   2.161       .  S
O281        C292   1.286       .  A
O281       Cd284   2.131       .  S
Zn282       O293   2.092       .  S
Zn282       O295   2.063       .  S
Zn282       O287   1.953       .  S
O283        C998   1.283   1_545  A
O283       Cd288   2.105       .  S
Cd284       O286   2.135   1_545  S
Cd284       O984   2.161   1_545  S
Cd284       O287   2.022       .  S
Cd285       O289   2.028       .  S
Cd285       O298   2.035       .  S
Cd285       O287   1.983       .  S
O286        C296   1.281       .  A
O287       Cd288   1.999       .  S
Cd288       O290   2.118       .  S
O289        C296   1.267   1_545  A
C291        C309   1.438       .  S
C291        O295   1.279       .  A
C294        O987   1.283       .  A
C296       C1009   1.445       .  S
C297        C316   1.430       .  S
C297        O298   1.266       .  A
C299        N300   1.364       .  A
C299        N304   1.367       .  A
N300        C301   1.366       .  A
C301        N302   1.370       .  A
N302        C303   1.370       .  A
C303        N304   1.372       .  A
C305       C1000   1.445       .  S
C305        C306   1.213       .  T
C307        C308   1.207       .  T
C309        C310   1.207       .  T
C311        C312   1.213       .  T
C313        C314   1.203       .  T
C315        C316   1.203       .  T
C317        C318   1.213       .  T
C319        C320   1.203       .  T
C321        C322   1.207       .  T
C323        C676   1.203       .  T
C324        C675   1.203       .  T
C325        C326   1.207       .  T
C327        C328   1.213       .  T
C329        C849   1.445       .  S
C329        C330   1.213       .  T
C331        C332   1.207       .  T
C333        C334   1.207       .  T
C335        C336   1.213       .  T
C337        C338   1.203       .  T
C339        C340   1.203       .  T
C341        C342   1.213       .  T
C343        C344   1.203       .  T
C345        C346   1.207       .  T
C347        C700   1.203       .  T
C348        C699   1.203       .  T
C349        C350   1.207       .  T
C351        C352   1.213       .  T
C353        C354   1.412       .  A
C353        C358   1.407       .  A
C353        C704   1.451       .  S
C354        C355   1.411   1_655  A
C354        H359   1.085       .  S
C355        C356   1.394       .  A
C355        C701   1.439       .  S
C356        C357   1.389       .  A
C356        H360   1.085       .  S
C357        C358   1.399   1_455  A
C357        C700   1.435       .  S
C358        H361   1.083       .  S
O362        C378   1.286       .  A
O362       Zn368   2.083       .  S
C363        O379   1.284       .  A
O364        C377   1.267       .  A
O364       Cd371   2.042       .  S
O365        C383   1.276       .  A
O365       Cd374   2.095       .  S
O366        C380   1.291       .  A
O366       Cd370   2.161       .  S
O367        C378   1.286       .  A
O367      Cd1074   2.131       .  S
Zn368       O379   2.092       .  S
Zn368       O381   2.064       .  S
Zn368       O373   1.953       .  S
O369      Cd1078   2.105   1_545  S
Cd370      O1071   2.131   1_545  S
Cd370       O372   2.135       .  S
Cd370      O1077   2.022   1_545  S
Cd371       O375   2.028       .  S
Cd371       O373   1.983       .  S
O372        C382   1.281       .  A
O373      Cd1074   2.022       .  S
Cd374      O1073   2.105       .  S
Cd374       O376   2.118       .  S
O375       C1086   1.267       .  A
C377        C698   1.438       .  S
C377        O381   1.279       .  A
C378        C461   1.504       .  S
C382        C703   1.445       .  S
C382       O1079   1.267       .  A
C383        C696   1.430       .  S
C383        O384   1.266       .  A
C385        C439   1.504       .  S
C385        N386   1.364       .  A
C385        N390   1.367       .  A
N386        C387   1.366       .  A
C387        N388   1.370       .  A
N388        C389   1.370       .  A
C389        N390   1.372       .  A
C391        C392   1.412       .  A
C391        C396   1.407   1_455  A
C391        C694   1.452       .  S
C392        C393   1.411   1_455  A
C392        H397   1.085       .  S
C393        C394   1.394       .  A
C393        C697   1.439       .  S
C394        C395   1.389       .  A
C394        H398   1.085       .  S
C395        C396   1.399       .  A
C395        C691   1.435       .  S
C396        H399   1.083       .  S
O400        C416   1.286       .  A
O400       Zn406   2.083       .  S
C401        O417   1.284       .  A
C401        O414   1.283       .  A
C401        C425   1.500       .  S
O402        C415   1.267       .  A
O402       Cd409   2.042       .  S
O403        C421   1.276       .  A
O403       Cd412   2.095       .  S
O404        C418   1.291       .  A
O404       Cd408   2.161       .  S
O405        C416   1.286       .  A
O405       Cd408   2.131       .  S
Zn406       O417   2.091       .  S
Zn406       O419   2.064       .  S
Zn406       O411   1.952       .  S
O407        C418   1.283       .  A
O407       Cd412   2.105       .  S
Cd408       O410   2.135       .  S
Cd408       O411   2.022       .  S
Cd409       O413   2.028       .  S
Cd409       O422   2.035       .  S
Cd409       O411   1.982       .  S
O410        C420   1.281       .  A
O411       Cd412   1.998       .  S
Cd412       O414   2.117       .  S
O413        C420   1.267       .  A
C415        C702   1.438       .  S
C415        O419   1.279       .  A
C416        C499   1.504       .  S
C418        C577   1.506       .  S
C420        C693   1.445       .  S
C421        C689   1.430       .  S
C421        O422   1.266       .  A
C423        C477   1.504       .  S
C423        N424   1.364       .  A
C423        N428   1.367       .  A
N424        C425   1.366       .  A
C425        N426   1.370       .  A
N426        C427   1.370       .  A
C427        C570   1.506       .  S
C427        N428   1.372       .  A
C429        C430   1.412       .  A
C429        C434   1.407       .  A
C429        C688   1.451       .  S
C430        C431   1.411   1_655  A
C430        H435   1.085       .  S
C431        C432   1.394       .  A
C431        C685   1.439       .  S
C432        C433   1.389       .  A
C432        H436   1.085       .  S
C433        C434   1.399   1_455  A
C433        C690   1.435       .  S
C434        H437   1.083       .  S
O438        C454   1.284       .  A
O438       Zn444   2.091       .  S
C439        O455   1.286       .  A
C439        O452   1.286       .  A
O440        C453   1.267       .  A
O440       Cd447   2.042       .  S
O441        C459   1.281       .  A
O441       Cd450   2.135       .  S
O442        C456   1.283       .  A
O442       Cd446   2.106       .  S
O443        C454   1.283       .  A
O443       Cd446   2.117       .  S
Zn444       O455   2.083       .  S
Zn444       O457   2.064       .  S
Zn444       O449   1.952       .  S
O445        C456   1.291       .  A
O445       Cd450   2.161       .  S
Cd446       O448   2.095       .  S
Cd446       O449   1.998       .  S
Cd447       O451   2.035       .  S
Cd447       O460   2.028       .  S
Cd447       O449   1.982       .  S
O448        C458   1.276       .  A
O449       Cd450   2.022       .  S
Cd450       O452   2.131       .  S
O451        C458   1.266       .  A
C453        C683   1.438       .  S
C453        O457   1.279       .  A
C454        C463   1.500       .  S
C456        C655   1.506       .  S
C458        C692   1.430       .  S
C459        C687   1.445       .  S
C459        O460   1.267       .  A
C461        N462   1.364       .  A
C461        N466   1.367       .  A
N462        C463   1.366       .  A
C463        N464   1.370       .  A
N464        C465   1.370       .  A
C465        C646   1.506       .  S
C465        N466   1.372       .  A
C467        C468   1.407   1_455  A
C467        C472   1.412       .  A
C467        C682   1.451       .  S
C468        C469   1.399       .  A
C468       H1177   1.083       .  S
C469        C470   1.389       .  A
C469        C695   1.435       .  S
C470        C471   1.394       .  A
C470        H474   1.085       .  S
C471        C472   1.411   1_655  A
C471        C684   1.439       .  S
C472        H475   1.085       .  S
H473       C1172   1.083   1_545  S
O476        C492   1.284       .  A
O476       Zn482   2.091       .  S
C477        O493   1.286       .  A
C477        O490   1.286       .  A
O478        C491   1.267       .  A
O478       Cd485   2.042       .  S
O479        C497   1.281       .  A
O479       Cd488   2.134   1_565  S
O480       C1198   1.283   1_544  A
O480       Cd484   2.105   1_554  S
O481        C492   1.283   1_554  A
O481       Cd484   2.118   1_554  S
Zn482       O493   2.083       .  S
Zn482       O495   2.064       .  S
Zn482       O487   1.952       .  S
O483        C494   1.291       .  A
O483      Cd1192   2.161       .  S
Cd484       O486   2.095   1_556  S
Cd484       O487   1.998       .  S
Cd485       O489   2.035       .  S
Cd485       O498   2.028       .  S
Cd485       O487   1.982       .  S
O486        C496   1.276       .  A
O487       Cd488   2.022       .  S
Cd488      O1187   2.161   1_545  S
Cd488       O490   2.131       .  S
O489        C496   1.266   1_556  A
C491        C686   1.438       .  S
C491        O495   1.279       .  A
C492        C503   1.500   1_556  S
C494       O1184   1.283   1_556  A
C494        C615   1.505   1_556  S
C496        C699   1.430       .  S
C497       C1385   1.445       .  S
C497        O498   1.267   1_565  A
C499        N500   1.367       .  A
C499        N504   1.364       .  A
C501        C608   1.506   1_554  S
C501        N502   1.370   1_554  A
N502        C503   1.370   1_556  A
C505        C506   1.412       .  A
C505        C510   1.407       .  A
C505        C680   1.451       .  S
C506        C507   1.411       .  A
C506        H511   1.085       .  S
C507        C508   1.394       .  A
C507        C678   1.439       .  S
C508        C509   1.389       .  A
C508        H512   1.085       .  S
C509        C510   1.399       .  A
C509        C676   1.435       .  S
C510        H513   1.083       .  S
O514        C530   1.284       .  A
O514       Zn520   2.091       .  S
C515        O531   1.286       .  A
C515        O528   1.286       .  A
C515        C651   1.504       .  S
O516        C529   1.267       .  A
O516       Cd523   2.042       .  S
O517        C535   1.281       .  A
O517       Cd526   2.134       .  S
O518       Cd522   2.106       .  S
O519       Cd522   2.117       .  S
Zn520       O531   2.083       .  S
Zn520       O533   2.064       .  S
Zn520       O525   1.952       .  S
O521        C532   1.291       .  A
O521       Cd526   2.161       .  S
Cd522       O524   2.095       .  S
Cd523       O536   2.028       .  S
Cd523       O525   1.982       .  S
O524        C534   1.276       .  A
O525       Cd526   2.022       .  S
Cd526       O528   2.131       .  S
O527        C534   1.266       .  A
C529        C673   1.438       .  S
C529        O533   1.279       .  A
C534        C671   1.430       .  S
C535        C679   1.445       .  S
C535        O536   1.267       .  A
C537        C644   1.504       .  S
C537        N538   1.367       .  A
C537        N542   1.364       .  A
N538        C539   1.372       .  A
C539        N540   1.370       .  A
N540        C541   1.370       .  A
C541        N542   1.366       .  A
C543        C544   1.407       .  A
C543        C548   1.412       .  A
C543        C670   1.452       .  S
C544        C545   1.399       .  A
C544        H549   1.083       .  S
C545        C546   1.389       .  A
C545        C667   1.435       .  S
C546        C547   1.394       .  A
C546        H550   1.085       .  S
C547        C548   1.411       .  A
C547        C674   1.439       .  S
C548        H551   1.085       .  S
O552        C568   1.284       .  A
O552       Zn558   2.092       .  S
C553        O569   1.286       .  A
C553        O566   1.286       .  A
C553        C613   1.504       .  S
O554        C567   1.267       .  A
O554       Cd561   2.042       .  S
O555        C573   1.281       .  A
O555       Cd564   2.135       .  S
O556        C570   1.283       .  A
O556      Cd1264   2.106   1_545  S
O557        C568   1.283       .  A
O557       Cd560   2.118       .  S
Zn558       O569   2.083       .  S
Zn558       O571   2.063       .  S
Zn558       O563   1.952       .  S
O559        C570   1.291       .  A
O559       Cd564   2.161       .  S
Cd560      O1260   2.106       .  S
Cd560       O562   2.096       .  S
Cd560       O563   1.999       .  S
Cd561       O565   2.035       .  S
Cd561       O574   2.028       .  S
Cd561       O563   1.982       .  S
O562        C572   1.276       .  A
O563      Cd1268   2.022       .  S
Cd564      O1270   2.131   1_545  S
Cd564      O1267   2.022   1_545  S
O565        C572   1.266       .  A
O566      Cd1268   2.131       .  S
C567        C677   1.438       .  S
C567        O571   1.279       .  A
C568        C579   1.500       .  S
C572        C665   1.430       .  S
C573        C669   1.445       .  S
C573       O1278   1.267       .  A
O574       C1277   1.267       .  A
C575        C606   1.504       .  S
C575        N576   1.367       .  A
C575        N580   1.364       .  A
N576        C577   1.372       .  A
C577        N578   1.370       .  A
N578        C579   1.370       .  A
C579        N580   1.366       .  A
C581        C582   1.412       .  A
C581        C586   1.407       .  A
C581        C664   1.451       .  S
C582        C583   1.411       .  A
C582        H587   1.085       .  S
C583        C584   1.394       .  A
C583        C662   1.439       .  S
C584        C585   1.389       .  A
C584        H588   1.085       .  S
C585        C586   1.399       .  A
C585        C672   1.435       .  S
C586        H589   1.083       .  S
O590        C606   1.286       .  A
O590       Zn596   2.083       .  S
C591        O607   1.284       .  A
C591        O604   1.283   1_556  A
C591        C617   1.500   1_556  S
O592        C605   1.267       .  A
O592       Cd599   2.042       .  S
O593        C611   1.276       .  A
O593       Cd602   2.095   1_554  S
O594        C608   1.291       .  A
O594       Cd598   2.161       .  S
O595        C606   1.286       .  A
O595       Cd598   2.131       .  S
Zn596       O607   2.092       .  S
Zn596       O609   2.064       .  S
Zn596       O601   1.952       .  S
O597        C608   1.283   1_554  A
O597       Cd602   2.105   1_554  S
Cd598       O600   2.135       .  S
Cd598       O601   2.022       .  S
Cd599       O603   2.028       .  S
Cd599       O612   2.035       .  S
Cd599       O601   1.982       .  S
O600        C610   1.281       .  A
O601       Cd602   1.998       .  S
Cd602       O604   2.117   1_556  S
O603        C610   1.267       .  A
C605        C659   1.438       .  S
C605        O609   1.279       .  A
C610        C663   1.445       .  S
C611        C675   1.430       .  S
C611        O612   1.266   1_554  A
C613        N614   1.367       .  A
C613        N618   1.364       .  A
C615        N616   1.370   1_554  A
N616        C617   1.370   1_556  A
C619        C620   1.407       .  A
C619        C624   1.412       .  A
C619        C658   1.452       .  S
C620        C621   1.399       .  A
C620       H1329   1.083       .  S
C621        C622   1.389       .  A
C621        C666   1.435       .  S
C622        C623   1.394       .  A
C622        H626   1.085       .  S
C623        C624   1.411       .  A
C623        C660   1.439       .  S
C624        H627   1.085       .  S
H625       C1324   1.083   1_545  S
O628        C644   1.286       .  A
O628       Zn634   2.083       .  S
C629        O645   1.284       .  A
C629        O642   1.283       .  A
C629        C653   1.500       .  S
O630        C643   1.267       .  A
O630       Cd637   2.042       .  S
O631        C649   1.276       .  A
O631       Cd640   2.096       .  S
O632        C646   1.291       .  A
O632      Cd1340   2.161       .  S
O633        C644   1.286       .  A
O633       Cd636   2.131       .  S
Zn634       O645   2.092       .  S
Zn634       O647   2.063       .  S
Zn634       O639   1.953       .  S
O635       C1350   1.283   1_545  A
O635       Cd640   2.105       .  S
Cd636      O1336   2.161   1_545  S
Cd636       O638   2.135   1_545  S
Cd636       O639   2.022       .  S
Cd637       O641   2.028       .  S
Cd637       O650   2.035       .  S
Cd637       O639   1.983       .  S
O638        C648   1.281       .  A
O639       Cd640   1.999       .  S
Cd640       O642   2.118       .  S
O641        C648   1.267   1_545  A
C643        C661   1.438       .  S
C643        O647   1.279       .  A
C646       O1339   1.283       .  A
C648       C1361   1.445       .  S
C649        C668   1.430       .  S
C649        O650   1.266       .  A
C651        N652   1.364       .  A
C651        N656   1.367       .  A
N652        C653   1.366       .  A
C653        N654   1.370       .  A
N654        C655   1.370       .  A
C655        N656   1.372       .  A
C657       C1352   1.445       .  S
C657        C658   1.213       .  T
C659        C660   1.207       .  T
C661        C662   1.207       .  T
C663        C664   1.213       .  T
C665        C666   1.203       .  T
C667        C668   1.203       .  T
C669        C670   1.213       .  T
C671        C672   1.203       .  T
C673        C674   1.207       .  T
C677        C678   1.207       .  T
C679        C680   1.213       .  T
C681       C1201   1.445       .  S
C681        C682   1.213       .  T
C683        C684   1.207       .  T
C685        C686   1.207       .  T
C687        C688   1.213       .  T
C689        C690   1.203       .  T
C691        C692   1.203       .  T
C693        C694   1.213       .  T
C695        C696   1.203       .  T
C697        C698   1.207       .  T
C701        C702   1.207       .  T
C703        C704   1.213       .  T
C705        C706   1.412       .  A
C705        C710   1.407       .  A
C705       C1056   1.451       .  S
C706        C707   1.411   1_655  A
C706        H711   1.085       .  S
C707        C708   1.394       .  A
C707       C1053   1.439       .  S
C708        C709   1.389       .  A
C708        H712   1.085       .  S
C709        C710   1.399   1_455  A
C709       C1052   1.435       .  S
C710        H713   1.083       .  S
O714        C730   1.286       .  A
O714       Zn720   2.083       .  S
C715        O731   1.284       .  A
C715       O1080   1.283       .  A
C715       C1091   1.500       .  S
O716        C729   1.267   1_556  A
O716       Cd723   2.042       .  S
O717        C735   1.276       .  A
O717       Cd726   2.095       .  S
O718        C732   1.291       .  A
O718       Cd722   2.161   1_556  S
O719        C730   1.286       .  A
Zn720       O731   2.092   1_554  S
Zn720       O733   2.064       .  S
Zn720       O725   1.953   1_554  S
O721       C1084   1.283       .  A
Cd722       O724   2.135       .  S
Cd723       O727   2.028   1_566  S
Cd723      O1088   2.035   1_565  S
Cd723       O725   1.983       .  S
O724        C734   1.281       .  A
O725      Cd1078   1.998       .  S
Cd726       O728   2.118       .  S
Cd726      O1077   1.998       .  S
O728       C1067   1.283       .  A
C729       C1050   1.438       .  S
C729        O733   1.279       .  A
C730        C813   1.504       .  S
C732       O1073   1.283       .  A
C732       C1243   1.505       .  S
C734       C1055   1.445       .  S
C735       C1048   1.430   1_565  S
C735        O736   1.266   1_565  A
O736      Cd1075   2.035   1_545  S
C737        C791   1.504       .  S
C737        N738   1.364       .  A
C737        N742   1.367       .  A
N738        C739   1.366       .  A
C739       C1067   1.500       .  S
C739        N740   1.370       .  A
N740        C741   1.370       .  A
C741       C1236   1.506       .  S
C741        N742   1.372       .  A
C743        C744   1.412       .  A
C743        C748   1.407   1_455  A
C743       C1046   1.452       .  S
C744        C745   1.411   1_455  A
C744        H749   1.085       .  S
C745        C746   1.394       .  A
C745       C1049   1.439       .  S
C746        C747   1.389       .  A
C746        H750   1.085       .  S
C747        C748   1.399       .  A
C747       C1043   1.435       .  S
C748        H751   1.083       .  S
O752        C768   1.286       .  A
O752       Zn758   2.083       .  S
C753        O769   1.284       .  A
C753        O766   1.283       .  A
C753        C777   1.500       .  S
O754        C767   1.267       .  A
O754       Cd761   2.042       .  S
O755        C773   1.276       .  A
O755       Cd764   2.095       .  S
O756        C770   1.291       .  A
O756       Cd760   2.161       .  S
O757        C768   1.286       .  A
O757       Cd760   2.131       .  S
Zn758       O769   2.091       .  S
Zn758       O771   2.064       .  S
Zn758       O763   1.952       .  S
O759        C770   1.283       .  A
O759       Cd764   2.105       .  S
Cd760       O762   2.135       .  S
Cd760       O763   2.022       .  S
Cd761       O765   2.028       .  S
Cd761       O774   2.035       .  S
Cd761       O763   1.982       .  S
O762        C772   1.281       .  A
O763       Cd764   1.998       .  S
Cd764       O766   2.117       .  S
O765        C772   1.267       .  A
C767       C1054   1.438       .  S
C767        O771   1.279       .  A
C768        C851   1.504       .  S
C770        C929   1.506       .  S
C772       C1045   1.445       .  S
C773       C1041   1.430       .  S
C773        O774   1.266       .  A
C775        C829   1.504       .  S
C775        N776   1.364       .  A
C775        N780   1.367       .  A
N776        C777   1.366       .  A
C777        N778   1.370       .  A
N778        C779   1.370       .  A
C779        C922   1.506       .  S
C779        N780   1.372       .  A
C781        C782   1.412       .  A
C781        C786   1.407       .  A
C781       C1040   1.451       .  S
C782        C783   1.411   1_655  A
C782        H787   1.085       .  S
C783        C784   1.394       .  A
C783       C1037   1.439       .  S
C784        C785   1.389       .  A
C784        H788   1.085       .  S
C785        C786   1.399   1_455  A
C785       C1042   1.435       .  S
C786        H789   1.083       .  S
O790        C806   1.284       .  A
O790       Zn796   2.091       .  S
C791        O807   1.286       .  A
C791        O804   1.286       .  A
O792        C805   1.267       .  A
O792       Cd799   2.042       .  S
O793        C811   1.281       .  A
O793       Cd802   2.135       .  S
O794        C808   1.283       .  A
O794       Cd798   2.106       .  S
O795        C806   1.283       .  A
O795       Cd798   2.117       .  S
Zn796       O807   2.083       .  S
Zn796       O809   2.064       .  S
Zn796       O801   1.952       .  S
O797        C808   1.291       .  A
O797       Cd802   2.161       .  S
Cd798       O800   2.095       .  S
Cd798       O801   1.998       .  S
Cd799       O803   2.035       .  S
Cd799       O812   2.028       .  S
Cd799       O801   1.982       .  S
O800        C810   1.276       .  A
O801       Cd802   2.022       .  S
Cd802       O804   2.131       .  S
O803        C810   1.266       .  A
C805       C1035   1.438       .  S
C805        O809   1.279       .  A
C806        C815   1.500       .  S
C808       C1007   1.506       .  S
C810       C1044   1.430       .  S
C811       C1039   1.445       .  S
C811        O812   1.267       .  A
C813        N814   1.364       .  A
C813        N818   1.367       .  A
N814        C815   1.366       .  A
C815        N816   1.370       .  A
N816        C817   1.370       .  A
C817        C998   1.506       .  S
C817        N818   1.372       .  A
C819        C820   1.407   1_455  A
C819        C824   1.412       .  A
C819       C1034   1.451       .  S
C820        C821   1.399       .  A
C821        C822   1.389       .  A
C821       C1047   1.435       .  S
C822        C823   1.394       .  A
C822        H826   1.085       .  S
C823        C824   1.411   1_655  A
C823       C1036   1.439       .  S
C824        H827   1.085       .  S
O828        C844   1.284       .  A
O828       Zn834   2.091       .  S
C829        O845   1.286       .  A
C829        O842   1.286       .  A
O830        C843   1.267       .  A
O830       Cd837   2.042       .  S
O831        C849   1.281       .  A
O831       Cd840   2.134       .  S
O832       Cd836   2.105       .  S
O833        C844   1.283       .  A
O833       Cd836   2.118       .  S
Zn834       O845   2.083       .  S
Zn834       O847   2.064       .  S
Zn834       O839   1.952       .  S
O835        C846   1.291       .  A
Cd836       O838   2.095       .  S
Cd836       O839   1.998       .  S
Cd837       O841   2.035       .  S
Cd837       O850   2.028       .  S
Cd837       O839   1.982       .  S
O838        C848   1.276       .  A
O839       Cd840   2.022       .  S
Cd840       O842   2.131       .  S
O841        C848   1.266       .  A
C843       C1038   1.438       .  S
C843        O847   1.279       .  A
C844        C855   1.500       .  S
C846        C967   1.505       .  S
C848       C1051   1.430       .  S
C849        O850   1.267       .  A
C851        N852   1.367       .  A
C851        N856   1.364       .  A
N852       C1205   1.372       .  A
C853        C960   1.506       .  S
C853       N1204   1.372       .  A
C853        N854   1.370       .  A
N854        C855   1.370       .  A
C855       N1208   1.366       .  A
N856       C1207   1.366       .  A
C857        C858   1.412       .  A
C857        C862   1.407       .  A
C857       C1032   1.451       .  S
C858        C859   1.411       .  A
C858        H863   1.085       .  S
C859        C860   1.394       .  A
C859       C1030   1.439       .  S
C860        C861   1.389       .  A
C860        H864   1.085       .  S
C861        C862   1.399       .  A
C861       C1028   1.435       .  S
C862        H865   1.083       .  S
O866        C882   1.284       .  A
O866       Zn872   2.091   1_556  S
C867        O883   1.286       .  A
C867        O880   1.286       .  A
C867       C1003   1.504       .  S
O868        C881   1.267   1_556  A
O868       Cd875   2.042       .  S
O869        C887   1.281       .  A
O869       Cd878   2.134       .  S
O870       C1236   1.283       .  A
O870       Cd874   2.106       .  S
O871       C1234   1.283       .  A
O871       Cd874   2.117       .  S
Zn872       O883   2.083       .  S
Zn872       O885   2.064       .  S
Zn872       O877   1.952   1_554  S
O873        C884   1.291       .  A
O873       Cd878   2.161   1_556  S
Cd874       O876   2.095       .  S
Cd874      O1229   1.998       .  S
Cd875      O1231   2.035       .  S
Cd875       O888   2.028   1_556  S
Cd875       O877   1.982       .  S
O876        C886   1.276       .  A
O877      Cd1226   1.998       .  S
O877       Cd878   2.022   1_556  S
Cd878       O880   2.131       .  S
O879        C886   1.266       .  A
O879      Cd1227   2.035       .  S
C881       C1025   1.438       .  S
C881        O885   1.279       .  A
C882       O1223   1.283       .  A
C882       C1245   1.500       .  S
C884       O1222   1.283       .  A
C884       C1093   1.506       .  S
C886       C1023   1.430       .  S
C887       C1031   1.445       .  S
C887        O888   1.267       .  A
C889        C996   1.504       .  S
C889        N890   1.367       .  A
C889        N894   1.364       .  A
N890        C891   1.372       .  A
C891       C1084   1.505       .  S
C891        N892   1.370       .  A
N892        C893   1.370       .  A
C893       C1234   1.500       .  S
C893        N894   1.366       .  A
C895        C896   1.407       .  A
C895        C900   1.412       .  A
C895       C1022   1.452       .  S
C896        C897   1.399       .  A
C896        H901   1.083       .  S
C897        C898   1.389       .  A
C897       C1019   1.435       .  S
C898        C899   1.394       .  A
C898        H902   1.085       .  S
C899        C900   1.411       .  A
C899       C1026   1.439       .  S
C900        H903   1.085       .  S
O904        C920   1.284       .  A
O904       Zn910   2.092       .  S
C905        O921   1.286       .  A
C905        O918   1.286       .  A
C905        C965   1.504       .  S
O906        C919   1.267       .  A
O906       Cd913   2.042       .  S
O907        C925   1.281       .  A
O907       Cd916   2.135       .  S
O908        C922   1.283       .  A
O909        C920   1.283       .  A
O909       Cd912   2.118       .  S
Zn910       O921   2.083       .  S
Zn910       O923   2.063       .  S
Zn910       O915   1.952       .  S
O911        C922   1.291       .  A
O911       Cd916   2.161       .  S
Cd912       O914   2.096       .  S
Cd912       O915   1.999       .  S
Cd913       O917   2.035   1_565  S
Cd913       O926   2.028   1_565  S
Cd913       O915   1.982       .  S
O914        C924   1.276       .  A
O917        C924   1.266   1_545  A
C919       C1029   1.438       .  S
C919        O923   1.279       .  A
C920        C931   1.500       .  S
C924       C1017   1.430   1_565  S
C925       C1021   1.445       .  S
C927        C958   1.504       .  S
C927        N928   1.367       .  A
C927        N932   1.364       .  A
N928        C929   1.372       .  A
C929        N930   1.370       .  A
N930        C931   1.370       .  A
C931        N932   1.366       .  A
C933        C934   1.412       .  A
C933        C938   1.407       .  A
C933       C1016   1.451       .  S
C934        C935   1.411       .  A
C934        H939   1.085       .  S
C935        C936   1.394       .  A
C935       C1014   1.439       .  S
C936        C937   1.389       .  A
C936        H940   1.085       .  S
C937        C938   1.399       .  A
C937       C1024   1.435       .  S
C938        H941   1.083       .  S
O942        C958   1.286       .  A
O942       Zn948   2.083       .  S
C943        O959   1.284       .  A
C943        O956   1.283       .  A
C943        C969   1.500       .  S
O944        C957   1.267       .  A
O944       Cd951   2.042       .  S
O945        C963   1.276       .  A
O945       Cd954   2.095       .  S
O946        C960   1.291       .  A
O946       Cd950   2.161       .  S
O947        C958   1.286       .  A
O947       Cd950   2.131       .  S
Zn948       O959   2.092       .  S
Zn948       O961   2.064       .  S
Zn948       O953   1.952       .  S
O949        C960   1.283       .  A
O949       Cd954   2.105       .  S
Cd950       O952   2.135       .  S
Cd950       O953   2.022       .  S
Cd951       O955   2.028       .  S
Cd951       O964   2.035       .  S
Cd951       O953   1.982       .  S
O952        C962   1.281       .  A
O953       Cd954   1.998       .  S
Cd954       O956   2.117       .  S
O955        C962   1.267       .  A
C957       C1011   1.438       .  S
C957        O961   1.279       .  A
C962       C1015   1.445       .  S
C963       C1027   1.430       .  S
C963        O964   1.266       .  A
C965        N966   1.367       .  A
C965        N970   1.364       .  A
N966       C1319   1.372       .  A
C967       N1318   1.372       .  A
C967        N968   1.370       .  A
N968        C969   1.370       .  A
C969       N1322   1.366       .  A
N970       C1321   1.366       .  A
C971        C972   1.407       .  A
C971        C976   1.412       .  A
C971       C1010   1.452       .  S
C972        C973   1.399       .  A
C973        C974   1.389       .  A
C973       C1018   1.435       .  S
C974        C975   1.394       .  A
C974        H978   1.085       .  S
C975        C976   1.411       .  A
C975       C1012   1.439       .  S
C976        H979   1.085       .  S
O980        C996   1.286       .  A
O980       Zn986   2.083       .  S
C981        O997   1.284       .  A
C981        O994   1.283       .  A
C981       C1005   1.500       .  S
O982        C995   1.267       .  A
O982       Cd989   2.042       .  S
O983       C1001   1.276       .  A
O983       Cd992   2.096       .  S
O984        C998   1.291       .  A
O985        C996   1.286       .  A
O985       Cd988   2.131       .  S
Zn986       O997   2.092       .  S
Zn986       O999   2.063       .  S
Zn986       O991   1.953       .  S
O987       Cd992   2.105       .  S
Cd988       O990   2.135       .  S
Cd988       O991   2.022       .  S
Cd989       O993   2.028       .  S
Cd989      O1002   2.035       .  S
Cd989       O991   1.983       .  S
O990       C1000   1.281       .  A
O991       Cd992   1.999       .  S
Cd992       O994   2.118       .  S
O993       C1000   1.267       .  A
C995       C1013   1.438       .  S
C995        O999   1.279       .  A
C1001      C1020   1.430       .  S
C1001      O1002   1.266       .  A
C1003      N1004   1.364       .  A
C1003      N1008   1.367       .  A
N1004      C1005   1.366       .  A
C1005      N1006   1.370       .  A
N1006      C1007   1.370       .  A
C1007      N1008   1.372       .  A
C1009      C1010   1.213       .  T
C1011      C1012   1.207       .  T
C1013      C1014   1.207       .  T
C1015      C1016   1.213       .  T
C1017      C1018   1.203   1_545  T
C1019      C1020   1.203       .  T
C1021      C1022   1.213       .  T
C1023      C1024   1.203       .  T
C1025      C1026   1.207       .  T
C1027      C1380   1.203       .  T
C1028      C1379   1.203       .  T
C1029      C1030   1.207       .  T
C1031      C1032   1.213       .  T
C1033      C1034   1.213       .  T
C1035      C1036   1.207       .  T
C1037      C1038   1.207       .  T
C1039      C1040   1.213       .  T
C1041      C1042   1.203       .  T
C1043      C1044   1.203       .  T
C1045      C1046   1.213       .  T
C1047      C1048   1.203   1_565  T
C1049      C1050   1.207       .  T
C1051      C1404   1.203       .  T
C1052      C1403   1.203       .  T
C1053      C1054   1.207       .  T
C1055      C1056   1.213       .  T
C1057      C1058   1.412       .  A
C1057      C1062   1.407       .  A
C1057      C1408   1.451       .  S
C1058      C1059   1.411   1_655  A
C1058      H1063   1.085       .  S
C1059      C1060   1.394       .  A
C1059      C1405   1.439       .  S
C1060      C1061   1.389       .  A
C1060      H1064   1.085       .  S
C1061      C1062   1.399   1_455  A
C1061      C1404   1.435       .  S
C1062      H1065   1.083       .  S
O1066      C1082   1.286       .  A
O1066     Zn1072   2.083       .  S
C1067      O1083   1.284       .  A
O1068      C1081   1.267       .  A
O1068     Cd1075   2.042       .  S
O1069      C1087   1.276       .  A
O1069     Cd1078   2.095       .  S
O1070      C1084   1.291       .  A
O1070     Cd1074   2.161       .  S
O1071      C1082   1.286       .  A
Zn1072     O1083   2.092       .  S
Zn1072     O1085   2.064       .  S
Zn1072     O1077   1.953       .  S
Cd1074     O1076   2.135       .  S
Cd1075     O1079   2.028   1_565  S
Cd1075     O1077   1.983       .  S
O1076      C1086   1.281       .  A
Cd1078     O1080   2.118       .  S
C1081      C1402   1.438       .  S
C1081      O1085   1.279       .  A
C1082      C1165   1.504       .  S
C1086      C1407   1.445       .  S
C1087      C1400   1.430   1_565  S
C1087      O1088   1.266   1_565  A
C1089      C1143   1.504       .  S
C1089      N1090   1.364       .  A
C1089      N1094   1.367       .  A
N1090      C1091   1.366       .  A
C1091      N1092   1.370       .  A
N1092      C1093   1.370       .  A
C1093      N1094   1.372       .  A
C1095      C1096   1.412       .  A
C1095      C1100   1.407   1_455  A
C1095      C1398   1.452       .  S
C1096      C1097   1.411   1_455  A
C1096      H1101   1.085       .  S
C1097      C1098   1.394       .  A
C1097      C1401   1.439       .  S
C1098      C1099   1.389       .  A
C1098      H1102   1.085       .  S
C1099      C1100   1.399       .  A
C1099      C1395   1.435       .  S
C1100      H1103   1.083       .  S
O1104      C1120   1.286       .  A
O1104     Zn1110   2.083       .  S
C1105      O1121   1.284       .  A
C1105      O1118   1.283       .  A
C1105      C1129   1.500       .  S
O1106      C1119   1.267       .  A
O1106     Cd1113   2.042       .  S
O1107      C1125   1.276       .  A
O1107     Cd1116   2.095       .  S
O1108      C1122   1.291       .  A
O1108     Cd1112   2.161       .  S
O1109      C1120   1.286       .  A
O1109     Cd1112   2.131       .  S
Zn1110     O1121   2.091       .  S
Zn1110     O1123   2.064       .  S
Zn1110     O1115   1.952       .  S
O1111      C1122   1.283       .  A
O1111     Cd1116   2.105       .  S
Cd1112     O1114   2.135       .  S
Cd1112     O1115   2.022       .  S
Cd1113     O1117   2.028       .  S
Cd1113     O1126   2.035       .  S
Cd1113     O1115   1.982       .  S
O1114      C1124   1.281       .  A
O1115     Cd1116   1.998       .  S
Cd1116     O1118   2.117       .  S
O1117      C1124   1.267       .  A
C1119      C1406   1.438       .  S
C1119      O1123   1.279       .  A
C1120      C1203   1.504       .  S
C1122      C1281   1.506       .  S
C1124      C1397   1.445       .  S
C1125      C1393   1.430       .  S
C1125      O1126   1.266       .  A
C1127      C1181   1.504       .  S
C1127      N1128   1.364       .  A
C1127      N1132   1.367       .  A
N1128      C1129   1.366       .  A
C1129      N1130   1.370       .  A
N1130      C1131   1.370       .  A
C1131      C1274   1.506       .  S
C1131      N1132   1.372       .  A
C1133      C1134   1.412       .  A
C1133      C1138   1.407       .  A
C1133      C1392   1.451       .  S
C1134      C1135   1.411   1_655  A
C1134      H1139   1.085       .  S
C1135      C1136   1.394       .  A
C1135      C1389   1.439       .  S
C1136      C1137   1.389       .  A
C1136      H1140   1.085       .  S
C1137      C1138   1.399   1_455  A
C1137      C1394   1.435       .  S
C1138      H1141   1.083       .  S
O1142      C1158   1.284       .  A
O1142     Zn1148   2.091       .  S
C1143      O1159   1.286       .  A
C1143      O1156   1.286       .  A
O1144      C1157   1.267       .  A
O1144     Cd1151   2.042       .  S
O1145      C1163   1.281       .  A
O1145     Cd1154   2.135       .  S
O1146      C1160   1.283       .  A
O1146     Cd1150   2.106       .  S
O1147      C1158   1.283       .  A
O1147     Cd1150   2.117       .  S
Zn1148     O1159   2.083       .  S
Zn1148     O1161   2.064       .  S
Zn1148     O1153   1.952       .  S
O1149      C1160   1.291       .  A
O1149     Cd1154   2.161       .  S
Cd1150     O1152   2.095       .  S
Cd1150     O1153   1.998       .  S
Cd1151     O1155   2.035       .  S
Cd1151     O1164   2.028       .  S
Cd1151     O1153   1.982       .  S
O1152      C1162   1.276       .  A
O1153     Cd1154   2.022       .  S
Cd1154     O1156   2.131       .  S
O1155      C1162   1.266       .  A
C1157      C1387   1.438       .  S
C1157      O1161   1.279       .  A
C1158      C1167   1.500       .  S
C1160      C1359   1.506       .  S
C1162      C1396   1.430       .  S
C1163      C1391   1.445       .  S
C1163      O1164   1.267       .  A
C1165      N1166   1.364       .  A
C1165      N1170   1.367       .  A
N1166      C1167   1.366       .  A
C1167      N1168   1.370       .  A
N1168      C1169   1.370       .  A
C1169      C1350   1.506       .  S
C1169      N1170   1.372       .  A
C1171      C1172   1.407   1_455  A
C1171      C1176   1.412       .  A
C1171      C1386   1.451       .  S
C1172      C1173   1.399       .  A
C1173      C1174   1.389       .  A
C1173      C1399   1.435       .  S
C1174      C1175   1.394       .  A
C1174      H1178   1.085       .  S
C1175      C1176   1.411   1_655  A
C1175      C1388   1.439       .  S
C1176      H1179   1.085       .  S
O1180      C1196   1.284       .  A
O1180     Zn1186   2.091       .  S
C1181      O1197   1.286       .  A
C1181      O1194   1.286       .  A
O1182      C1195   1.267       .  A
O1182     Cd1189   2.042       .  S
O1183      C1201   1.281       .  A
O1183     Cd1192   2.134       .  S
O1184     Cd1188   2.105   1_554  S
O1185      C1196   1.283   1_554  A
O1185     Cd1188   2.118   1_554  S
Zn1186     O1197   2.083       .  S
Zn1186     O1199   2.064       .  S
Zn1186     O1191   1.952       .  S
O1187      C1198   1.291       .  A
Cd1188     O1190   2.095   1_556  S
Cd1188     O1191   1.998       .  S
Cd1189     O1193   2.035       .  S
Cd1189     O1202   2.028       .  S
Cd1189     O1191   1.982       .  S
O1190      C1200   1.276       .  A
O1191     Cd1192   2.022       .  S
Cd1192     O1194   2.131       .  S
O1193      C1200   1.266   1_556  A
C1195      C1390   1.438       .  S
C1195      O1199   1.279       .  A
C1196      C1207   1.500   1_556  S
C1198      C1319   1.505   1_556  S
C1200      C1403   1.430       .  S
C1201      O1202   1.267       .  A
C1203      N1204   1.367       .  A
C1203      N1208   1.364       .  A
C1205      C1312   1.506   1_554  S
C1205      N1206   1.370   1_554  A
N1206      C1207   1.370   1_556  A
C1209      C1210   1.412       .  A
C1209      C1214   1.407       .  A
C1209      C1384   1.451       .  S
C1210      C1211   1.411       .  A
C1210      H1215   1.085       .  S
C1211      C1212   1.394       .  A
C1211      C1382   1.439       .  S
C1212      C1213   1.389       .  A
C1212      H1216   1.085       .  S
C1213      C1214   1.399       .  A
C1213      C1380   1.435       .  S
C1214      H1217   1.083       .  S
O1218      C1234   1.284       .  A
O1218     Zn1224   2.091       .  S
C1219      O1235   1.286       .  A
C1219      O1232   1.286       .  A
C1219      C1355   1.504       .  S
O1220      C1233   1.267       .  A
O1220     Cd1227   2.042       .  S
O1221      C1239   1.281       .  A
O1221     Cd1230   2.134       .  S
O1222     Cd1226   2.106       .  S
O1223     Cd1226   2.117       .  S
Zn1224     O1235   2.083       .  S
Zn1224     O1237   2.064       .  S
Zn1224     O1229   1.952       .  S
O1225      C1236   1.291       .  A
O1225     Cd1230   2.161       .  S
Cd1226     O1228   2.095       .  S
Cd1227     O1240   2.028       .  S
Cd1227     O1229   1.982       .  S
O1228      C1238   1.276       .  A
O1229     Cd1230   2.022       .  S
Cd1230     O1232   2.131       .  S
O1231      C1238   1.266       .  A
C1233      C1377   1.438       .  S
C1233      O1237   1.279       .  A
C1238      C1375   1.430       .  S
C1239      C1383   1.445       .  S
C1239      O1240   1.267       .  A
C1241      C1348   1.504       .  S
C1241      N1242   1.367       .  A
C1241      N1246   1.364       .  A
N1242      C1243   1.372       .  A
C1243      N1244   1.370       .  A
N1244      C1245   1.370       .  A
C1245      N1246   1.366       .  A
C1247      C1248   1.407       .  A
C1247      C1252   1.412       .  A
C1247      C1374   1.452       .  S
C1248      C1249   1.399       .  A
C1248      H1253   1.083       .  S
C1249      C1250   1.389       .  A
C1249      C1371   1.435       .  S
C1250      C1251   1.394       .  A
C1250      H1254   1.085       .  S
C1251      C1252   1.411       .  A
C1251      C1378   1.439       .  S
C1252      H1255   1.085       .  S
O1256      C1272   1.284       .  A
O1256     Zn1262   2.092       .  S
C1257      O1273   1.286       .  A
C1257      O1270   1.286       .  A
C1257      C1317   1.504       .  S
O1258      C1271   1.267       .  A
O1258     Cd1265   2.042       .  S
O1259      C1277   1.281       .  A
O1259     Cd1268   2.135       .  S
O1260      C1274   1.283       .  A
O1261      C1272   1.283       .  A
O1261     Cd1264   2.118       .  S
Zn1262     O1273   2.083       .  S
Zn1262     O1275   2.063       .  S
Zn1262     O1267   1.952       .  S
O1263      C1274   1.291       .  A
O1263     Cd1268   2.161       .  S
Cd1264     O1266   2.096       .  S
Cd1264     O1267   1.999       .  S
Cd1265     O1269   2.035   1_565  S
Cd1265     O1278   2.028   1_565  S
Cd1265     O1267   1.982       .  S
O1266      C1276   1.276       .  A
O1269      C1276   1.266   1_545  A
C1271      C1381   1.438       .  S
C1271      O1275   1.279       .  A
C1272      C1283   1.500       .  S
C1276      C1369   1.430   1_565  S
C1277      C1373   1.445       .  S
C1279      C1310   1.504       .  S
C1279      N1280   1.367       .  A
C1279      N1284   1.364       .  A
N1280      C1281   1.372       .  A
C1281      N1282   1.370       .  A
N1282      C1283   1.370       .  A
C1283      N1284   1.366       .  A
C1285      C1286   1.412       .  A
C1285      C1290   1.407       .  A
C1285      C1368   1.451       .  S
C1286      C1287   1.411       .  A
C1286      H1291   1.085       .  S
C1287      C1288   1.394       .  A
C1287      C1366   1.439       .  S
C1288      C1289   1.389       .  A
C1288      H1292   1.085       .  S
C1289      C1290   1.399       .  A
C1289      C1376   1.435       .  S
C1290      H1293   1.083       .  S
O1294      C1310   1.286       .  A
O1294     Zn1300   2.083       .  S
C1295      O1311   1.284       .  A
C1295      O1308   1.283   1_556  A
C1295      C1321   1.500   1_556  S
O1296      C1309   1.267       .  A
O1296     Cd1303   2.042       .  S
O1297      C1315   1.276       .  A
O1297     Cd1306   2.095   1_554  S
O1298      C1312   1.291       .  A
O1298     Cd1302   2.161       .  S
O1299      C1310   1.286       .  A
O1299     Cd1302   2.131       .  S
Zn1300     O1311   2.092       .  S
Zn1300     O1313   2.064       .  S
Zn1300     O1305   1.952       .  S
O1301      C1312   1.283   1_554  A
O1301     Cd1306   2.105   1_554  S
Cd1302     O1304   2.135       .  S
Cd1302     O1305   2.022       .  S
Cd1303     O1307   2.028       .  S
Cd1303     O1316   2.035       .  S
Cd1303     O1305   1.982       .  S
O1304      C1314   1.281       .  A
O1305     Cd1306   1.998       .  S
Cd1306     O1308   2.117   1_556  S
O1307      C1314   1.267       .  A
C1309      C1363   1.438       .  S
C1309      O1313   1.279       .  A
C1314      C1367   1.445       .  S
C1315      C1379   1.430       .  S
C1315      O1316   1.266   1_554  A
C1317      N1318   1.367       .  A
C1317      N1322   1.364       .  A
C1319      N1320   1.370   1_554  A
N1320      C1321   1.370   1_556  A
C1323      C1324   1.407       .  A
C1323      C1328   1.412       .  A
C1323      C1362   1.452       .  S
C1324      C1325   1.399       .  A
C1325      C1326   1.389       .  A
C1325      C1370   1.435       .  S
C1326      C1327   1.394       .  A
C1326      H1330   1.085       .  S
C1327      C1328   1.411       .  A
C1327      C1364   1.439       .  S
C1328      H1331   1.085       .  S
O1332      C1348   1.286       .  A
O1332     Zn1338   2.083       .  S
C1333      O1349   1.284       .  A
C1333      O1346   1.283       .  A
C1333      C1357   1.500       .  S
O1334      C1347   1.267       .  A
O1334     Cd1341   2.042       .  S
O1335      C1353   1.276       .  A
O1335     Cd1344   2.096       .  S
O1336      C1350   1.291       .  A
O1337      C1348   1.286       .  A
O1337     Cd1340   2.131       .  S
Zn1338     O1349   2.092       .  S
Zn1338     O1351   2.063       .  S
Zn1338     O1343   1.953       .  S
O1339     Cd1344   2.105       .  S
Cd1340     O1342   2.135       .  S
Cd1340     O1343   2.022       .  S
Cd1341     O1345   2.028       .  S
Cd1341     O1354   2.035       .  S
Cd1341     O1343   1.983       .  S
O1342      C1352   1.281       .  A
O1343     Cd1344   1.999       .  S
Cd1344     O1346   2.118       .  S
O1345      C1352   1.267       .  A
C1347      C1365   1.438       .  S
C1347      O1351   1.279       .  A
C1353      C1372   1.430       .  S
C1353      O1354   1.266       .  A
C1355      N1356   1.364       .  A
C1355      N1360   1.367       .  A
N1356      C1357   1.366       .  A
C1357      N1358   1.370       .  A
N1358      C1359   1.370       .  A
C1359      N1360   1.372       .  A
C1361      C1362   1.213       .  T
C1363      C1364   1.207       .  T
C1365      C1366   1.207       .  T
C1367      C1368   1.213       .  T
C1369      C1370   1.203   1_545  T
C1371      C1372   1.203       .  T
C1373      C1374   1.213       .  T
C1375      C1376   1.203       .  T
C1377      C1378   1.207       .  T
C1381      C1382   1.207       .  T
C1383      C1384   1.213       .  T
C1385      C1386   1.213       .  T
C1387      C1388   1.207       .  T
C1389      C1390   1.207       .  T
C1391      C1392   1.213       .  T
C1393      C1394   1.203       .  T
C1395      C1396   1.203       .  T
C1397      C1398   1.213       .  T
C1399      C1400   1.203   1_565  T
C1401      C1402   1.207       .  T
C1405      C1406   1.207       .  T
C1407      C1408   1.213       .  T
