geometry optimzed in LAMMPS
_audit_creation_date              2020-11-30 
_audit_creation_method            'lammps2cif' 
_symmetry_space_group_name_H-M    'P1' 
_symmetry_Int_Tables_number       1 
_symmetry_cell_setting            triclinic 
loop_ 
_symmetry_equiv_pos_as_xyz 
  x,y,z 
_cell_length_a                    24.81405519569925 
_cell_length_b                    23.213520407648065 
_cell_length_c                    21.280258264552298 
_cell_angle_alpha                 90.07002952097112 
_cell_angle_beta                  89.88054091281411 
_cell_angle_gamma                 90.10537070864099 
loop_ 
_atom_site_label 
_atom_site_type_symbol 
_atom_site_fract_x 
_atom_site_fract_y 
_atom_site_fract_z 
_atom_site_charge 
In1        In  0.34200816  0.37889548  0.07382703     1.36870
C2          C  0.35768037  0.47733563  0.02894024     0.77840
O3          O  0.28330028  0.37737600  0.99522778    -0.60610
O4          O  0.25152553  0.38418934  0.08845807    -0.51520
C5          C  0.35556732  0.28067740  0.02636239     0.70510
O6          O  0.37376924  0.32508352  0.49980045    -0.46370
C7          C  0.42181077  0.37700769  0.15856696     0.75210
O8          O  0.37508637  0.43297792  0.50152925    -0.58230
O9          O  0.37297520  0.37294983  0.17693930    -0.48330
O10         O  0.33677624  0.47173022  0.08303818    -0.54670
C11         C  0.24224083  0.38170203  0.02939588     0.85390
O12         O  0.33468989  0.28604256  0.08050225    -0.56560
O13         O  0.42591948  0.38310876  0.09994575    -0.59850
In14       In  0.08866391  0.38394678  0.45516024     1.36870
C15         C  0.06729368  0.28752213  0.00209954     0.77840
O16         O  0.02207523  0.34340942  0.40448548    -0.60610
O17         O  0.06005744  0.41278853  0.35771684    -0.51520
C18         C  0.06284957  0.48252358  0.99218096     0.70510
O19         O  0.04657564  0.43849332  0.02157508    -0.46370
C20         C  0.18815352  0.38358927  0.50115346     0.75210
O21         O  0.04816397  0.33287779  0.02682700    -0.58230
O22         O  0.17908517  0.37676757  0.44258421    -0.48330
O23         O  0.09449184  0.29212059  0.45171622    -0.54670
C24         C  0.02103796  0.37741273  0.35859866     0.85390
O25         O  0.08606212  0.47551621  0.43994755    -0.56560
O26         O  0.14702141  0.39202379  0.03422773    -0.59850
In27       In  0.08655641  0.13367996  0.06750973     1.36870
C28         C  0.06545067  0.03675727  0.02176053     0.77840
O29         O  0.14511959  0.14061119  0.98796727    -0.60610
O30         O  0.17681238  0.12502756  0.07953996    -0.51520
C31         C  0.06345679  0.23328634  0.03143191     0.70510
O32         O  0.04613781  0.18987944  0.50177410    -0.46370
C33         C  0.01848062  0.12766924  0.16402984     0.75210
O34         O  0.04653383  0.08184020  0.49642645    -0.58230
O35         O  0.06008537  0.15949419  0.16676947    -0.48330
O36         O  0.09214724  0.04185883  0.07231491    -0.54670
C37         C  0.18612166  0.13177913  0.02098883     0.85390
O38         O  0.08635131  0.22537049  0.08357011    -0.56560
O39         O  0.01637843  0.09715340  0.11518584    -0.59850
In40       In  0.34086486  0.12840113  0.44959879     1.36870
C41         C  0.35566715  0.22694579  0.99511546     0.77840
O42         O  0.42471849  0.13585357  0.42355683    -0.60610
O43         O  0.37276965  0.12091399  0.34680243    -0.51520
C44         C  0.35680948  0.03084565  0.99743523     0.70510
O45         O  0.37344166  0.07591065  0.02405947    -0.46370
C46         C  0.24043725  0.12983339  0.49295288     0.75210
O47         O  0.37265475  0.18255858  0.02259853    -0.58230
O48         O  0.25035526  0.13325114  0.43405661    -0.48330
O49         O  0.33508324  0.22130188  0.44092785    -0.54670
C50         C  0.42130042  0.12736716  0.36525617     0.85390
O51         O  0.33625497  0.03534658  0.44315961    -0.56560
O52         O  0.28116020  0.12486331  0.02733024    -0.59850
C53         C  0.97206109  0.12456677  0.21202693    -0.02230
C54         C  0.97323130  0.37462084  0.31295534    -0.02230
In55       In  0.85883507  0.36556183  0.45749170     1.36870
C56         C  0.88214905  0.26604884  0.99366323     0.77840
O57         O  0.80018043  0.35845225  0.03689901    -0.60610
O58         O  0.76859854  0.37391293  0.44524724    -0.51520
C59         C  0.87972868  0.46255094  0.00325711     0.70510
O60         O  0.89880201  0.41753211  0.02853868    -0.46370
C61         C  0.92679215  0.37158370  0.36090047     0.75210
O62         O  0.89928901  0.30953085  0.02338541    -0.58230
O63         O  0.88538891  0.33945729  0.35838955    -0.48330
O64         O  0.85940659  0.27389073  0.44142238    -0.54670
C65         C  0.75921852  0.36715724  0.50377833     0.85390
O66         O  0.85299954  0.45737476  0.45273468    -0.56560
O67         O  0.92871817  0.40242223  0.40951444    -0.59850
In68       In  0.60441382  0.37062895  0.07484789     1.36870
C69         C  0.58941507  0.27211887  0.02936702     0.77840
O70         O  0.66419693  0.37386763  0.99721459    -0.60610
O71         O  0.69487761  0.36574737  0.09057424    -0.51520
C72         C  0.58868514  0.46820306  0.02691744     0.70510
O73         O  0.57206392  0.42314688  0.50026588    -0.46370
C74         C  0.52397976  0.37176951  0.15914785     0.75210
O75         O  0.57250831  0.31653447  0.50187388    -0.58230
O76         O  0.57251823  0.37804896  0.17763641    -0.48330
O77         O  0.60999826  0.27772612  0.08355456    -0.54670
C78         C  0.70486568  0.36903236  0.03168783     0.85390
O79         O  0.60915019  0.46368775  0.08123806    -0.56560
O80         O  0.52054935  0.36344200  0.10082262    -0.59850
In81       In  0.60326839  0.12025128  0.45065523     1.36870
C82         C  0.58951470  0.21841195  0.99809116     0.77840
O83         O  0.66187765  0.12196645  0.02939926    -0.60610
O84         O  0.69380485  0.11525394  0.43624061    -0.51520
C85         C  0.58780326  0.02173663  0.99545029     0.70510
O86         O  0.57027776  0.06604292  0.02286478    -0.46370
C87         C  0.52347320  0.12213324  0.36586512     0.75210
O88         O  0.57131500  0.17398858  0.02462210    -0.58230
O89         O  0.57231816  0.12620013  0.34752235    -0.48330
O90         O  0.61045552  0.21308563  0.44397991    -0.54670
C91         C  0.70300014  0.11775957  0.49532428     0.85390
O92         O  0.60874617  0.02742231  0.44138211    -0.56560
O93         O  0.51934681  0.11600491  0.42448362    -0.59850
In94       In  0.85653325  0.11544663  0.06986752     1.36870
C95         C  0.87822247  0.21182752  0.02301530     0.77840
O96         O  0.79825746  0.10759799  0.99067259    -0.60610
O97         O  0.76606763  0.12272089  0.08227838    -0.51520
C98         C  0.88224561  0.01680494  0.03282634     0.70510
O99         O  0.89861191  0.06082759  0.50348738    -0.46370
C100        C  0.92419586  0.12181525  0.16645256     0.75210
O101        O  0.89721469  0.16641126  0.49826420    -0.58230
O102        O  0.88523282  0.08636613  0.16723291    -0.48330
O103        O  0.85100007  0.20730442  0.07339629    -0.54670
C104        C  0.75707361  0.11597478  0.02367838     0.85390
O105        O  0.85892709  0.02384744  0.08499400    -0.56560
O106        O  0.92305930  0.15595887  0.12070536    -0.59850
C107        C  0.47267423  0.37446496  0.20132707    -0.02230
C108        C  0.47261681  0.12467765  0.32307669    -0.02230
C109        C  0.47226304  0.06043082  0.28938490    -0.05080
C110        C  0.49112641  0.04765140  0.22786874    -0.02200
C111        C  0.48633062  0.49072319  0.20012300     0.02790
C112        C  0.47304346  0.43871389  0.23500857    -0.05080
C113        C  0.45417690  0.45149609  0.29651902    -0.02180
C114        C  0.45898558  0.00841927  0.32426761     0.02790
C115        C  0.52150580  0.09108291  0.19412433     0.37440
C116        C  0.42379243  0.40806742  0.33025997     0.37430
C117        C  0.45955544  0.00969999  0.39191509     0.35850
C118        C  0.48582749  0.48942272  0.13247280     0.35850
N119        N  0.46342929  0.00861605  0.44595365    -0.38890
N120        N  0.48202629  0.49047423  0.07842599    -0.38970
N121        N  0.39881000  0.37406995  0.35746984    -0.38410
N122        N  0.54648276  0.12507958  0.16690612    -0.38410
C123        C  0.47343551  0.18876345  0.28931485    -0.05080
C124        C  0.45231851  0.20173833  0.22899282    -0.02200
C125        C  0.45715687  0.25839184  0.20083435     0.02790
C126        C  0.47186185  0.31037768  0.23507740    -0.05080
C127        C  0.49298530  0.29740170  0.29539136    -0.02180
C128        C  0.48813820  0.24075249  0.32355311     0.02790
C129        C  0.41998008  0.15877942  0.19706747     0.37440
C130        C  0.52532871  0.34036073  0.32730903     0.37430
C131        C  0.48773610  0.24030799  0.39123263     0.35850
C132        C  0.45750054  0.25886281  0.13315187     0.35850
N133        N  0.48379920  0.24224924  0.44527541    -0.38970
N134        N  0.46137190  0.25696408  0.07910080    -0.38970
N135        N  0.55186725  0.37403688  0.35291329    -0.38410
N136        N  0.39344685  0.12510691  0.17144982    -0.38410
C137        C  0.96843685  0.43650361  0.27714553    -0.05080
C138        C  0.01352655  0.46048828  0.24565446    -0.02200
C139        C  0.01998262  0.02160582  0.23674572     0.02790
C140        C  0.97686609  0.06265734  0.24777500    -0.05080
C141        C  0.93178474  0.03866805  0.27927719    -0.02180
C142        C  0.92531050  0.47755159  0.28813053     0.02790
C143        C  0.05395503  0.42175954  0.22042597     0.37440
C144        C  0.89139090  0.07738515  0.30459906     0.37430
C145        C  0.87069523  0.45839326  0.30079583     0.35850
C146        C  0.07458721  0.04076258  0.22403499     0.35850
N147        N  0.82648008  0.44481418  0.31012602    -0.38970
N148        N  0.11880732  0.05432008  0.21469928    -0.38970
N149        N  0.85917805  0.10731148  0.32652557    -0.38410
N150        N  0.08619825  0.39181111  0.19859646    -0.38410
C151        C  0.97715923  0.31274633  0.27672777    -0.05080
C152        C  0.93110364  0.28843314  0.24769420    -0.02200
C153        C  0.92446521  0.22724850  0.23962943     0.02790
C154        C  0.96813967  0.18641242  0.24831515    -0.05080
C155        C  0.01419496  0.21071701  0.27735583    -0.02180
C156        C  0.02082238  0.27190227  0.28547260     0.02790
C157        C  0.88984281  0.32687928  0.22409552     0.37440
C158        C  0.05543858  0.17225084  0.30095953     0.37430
C159        C  0.07574090  0.29133183  0.29564440     0.35850
C160        C  0.86952984  0.20780844  0.22959093     0.35850
N161        N  0.12003159  0.30537100  0.30338683    -0.38970
N162        N  0.82523021  0.19375577  0.22194624    -0.38970
N163        N  0.08842203  0.14243113  0.32121126    -0.38410
N164        N  0.85683769  0.35666849  0.20383936    -0.38410
In165      In  0.34200975  0.37890151  0.57382767     1.36870
C166        C  0.35768452  0.47734172  0.52894277     0.77840
O167        O  0.28330238  0.37738838  0.49522824    -0.60610
O168        O  0.25152784  0.38420263  0.58845876    -0.51520
C169        C  0.35556204  0.28068247  0.52636141     0.70510
O170        O  0.37377144  0.32507947  0.99980066    -0.46370
C171        C  0.42181225  0.37700762  0.65856725     0.75210
O172        O  0.37508290  0.43297190  0.00152730    -0.58230
O173        O  0.37297648  0.37295334  0.67693975    -0.48330
O174        O  0.33678185  0.47173636  0.58304144    -0.54670
C175        C  0.24224325  0.38171721  0.52939645     0.85390
O176        O  0.33468408  0.28604886  0.58050088    -0.56560
O177        O  0.42592134  0.38310756  0.59994589    -0.59850
In178      In  0.08866126  0.38393248  0.95515802     1.36870
C179        C  0.06730129  0.28753941  0.50211062     0.77840
O180        O  0.02206569  0.34340781  0.90448584    -0.60610
O181        O  0.06005738  0.41277991  0.85771478    -0.51520
C182        C  0.06284649  0.48253707  0.49217887     0.70510
O183        O  0.04657298  0.43850671  0.52157309    -0.46370
C184        C  0.18815078  0.38357088  0.00115281     0.75210
O185        O  0.04816845  0.33289537  0.52683423    -0.58230
O186        O  0.17908278  0.37675084  0.94258319    -0.48330
O187        O  0.09448297  0.29210487  0.95170430    -0.54670
C188        C  0.02103295  0.37741027  0.85859800     0.85390
O189        O  0.08606370  0.47550250  0.93994881    -0.56560
O190        O  0.14702463  0.39204480  0.53422830    -0.59850
In191      In  0.08655257  0.13369202  0.56751021     1.36870
C192        C  0.06544697  0.03677052  0.52175878     0.77840
O193        O  0.14511486  0.14062150  0.48796604    -0.60610
O194        O  0.17680784  0.12503181  0.57953760    -0.51520
C195        C  0.06346171  0.23330352  0.53144195     0.70510
O196        O  0.04613943  0.18985871  0.00176482    -0.46370
C197        C  0.01847240  0.12767575  0.66402542     0.75210
O198        O  0.04653397  0.08182623  0.99643020    -0.58230
O199        O  0.06008646  0.15948631  0.66677753    -0.48330
O200        O  0.09214042  0.04187100  0.57231547    -0.54670
C201        C  0.18611683  0.13178472  0.52098657     0.85390
O202        O  0.08635962  0.22538254  0.58357730    -0.56560
O203        O  0.01636135  0.09717754  0.61516867    -0.59850
In204      In  0.34086897  0.12839734  0.94959983     1.36870
C205        C  0.35566101  0.22695042  0.49511491     0.77840
O206        O  0.42472292  0.13584640  0.92355875    -0.60610
O207        O  0.37277325  0.12091474  0.84680319    -0.51520
C208        C  0.35681070  0.03085126  0.49743675     0.70510
O209        O  0.37344077  0.07591776  0.52405973    -0.46370
C210        C  0.24044216  0.12983045  0.99295547     0.75210
O211        O  0.37264786  0.18256323  0.52259856    -0.58230
O212        O  0.25035958  0.13324593  0.93405889    -0.48330
O213        O  0.33508796  0.22129756  0.94092908    -0.54670
C214        C  0.42130428  0.12736464  0.86525732     0.85390
O215        O  0.33625509  0.03534308  0.94315761    -0.56560
O216        O  0.28115489  0.12486251  0.52732758    -0.59850
C217        C  0.97205478  0.12456903  0.71202564    -0.02230
C218        C  0.97322743  0.37462190  0.81295297    -0.02230
In219      In  0.85883378  0.36556360  0.95749165     1.36870
C220        C  0.88214601  0.26604485  0.49366027     0.77840
O221        O  0.80018196  0.35845122  0.53689968    -0.60610
O222        O  0.76859707  0.37391262  0.94524641    -0.51520
C223        C  0.87972853  0.46255031  0.50325592     0.70510
O224        O  0.89880074  0.41753180  0.52853928    -0.46370
C225        C  0.92678772  0.37158582  0.86089715     0.75210
O226        O  0.89928813  0.30952548  0.52338317    -0.58230
O227        O  0.88538883  0.33945280  0.85839193    -0.48330
O228        O  0.85940989  0.27389259  0.94142483    -0.54670
C229        C  0.75921702  0.36715732  0.00377750     0.85390
O230        O  0.85299772  0.45737617  0.95273719    -0.56560
O231        O  0.92871032  0.40243096  0.90950618    -0.59850
In232      In  0.60441465  0.37062818  0.57484784     1.36870
C233        C  0.58941520  0.27211833  0.52936664     0.77840
O234        O  0.66419847  0.37386882  0.49721530    -0.60610
O235        O  0.69487861  0.36574636  0.59057481    -0.51520
C236        C  0.58868253  0.46820142  0.52691654     0.70510
O237        O  0.57206470  0.42314934  0.00026658    -0.46370
C238        C  0.52398100  0.37176768  0.65914841     0.75210
O239        O  0.57250751  0.31653474  0.00187425    -0.58230
O240        O  0.57251931  0.37805032  0.67763630    -0.48330
O241        O  0.60999894  0.27772527  0.58355395    -0.54670
C242        C  0.70486706  0.36903251  0.53168859     0.85390
O243        O  0.60914785  0.46368719  0.58123711    -0.56560
O244        O  0.52055065  0.36343696  0.60082376    -0.59850
In245      In  0.60327366  0.12025255  0.95065449     1.36870
C246        C  0.58951298  0.21841128  0.49809116     0.77840
O247        O  0.66187090  0.12196270  0.52940129    -0.60610
O248        O  0.69381064  0.11525613  0.93623853    -0.51520
C249        C  0.58779849  0.02173491  0.49544927     0.70510
O250        O  0.57027197  0.06604064  0.52286404    -0.46370
C251        C  0.52347740  0.12213224  0.86586482     0.75210
O252        O  0.57131082  0.17398893  0.52462196    -0.58230
O253        O  0.57232212  0.12620113  0.84752162    -0.48330
O254        O  0.61045685  0.21308745  0.94397956    -0.54670
C255        C  0.70300667  0.11776299  0.99532198     0.85390
O256        O  0.60875116  0.02742332  0.94138316    -0.56560
O257        O  0.51935191  0.11600295  0.92448323    -0.59850
In258      In  0.85652634  0.11544444  0.56986851     1.36870
C259        C  0.87821686  0.21182360  0.52301216     0.77840
O260        O  0.79825038  0.10759492  0.49067470    -0.60610
O261        O  0.76606075  0.12271628  0.58228088    -0.51520
C262        C  0.88224309  0.01680433  0.53282572     0.70510
O263        O  0.89861567  0.06082706  0.00348696    -0.46370
C264        C  0.92418665  0.12181648  0.66645561     0.75210
O265        O  0.89721933  0.16641599  0.99826465    -0.58230
O266        O  0.88523104  0.08635817  0.66723002    -0.48330
O267        O  0.85099275  0.20730201  0.57339202    -0.54670
C268        C  0.75706671  0.11597087  0.52368083     0.85390
O269        O  0.85892383  0.02384520  0.58499321    -0.56560
O270        O  0.92304199  0.15596742  0.62071547    -0.59850
C271        C  0.47267551  0.37446359  0.70132755    -0.02230
C272        C  0.47262026  0.12467599  0.82307720    -0.02230
C273        C  0.47226608  0.06042920  0.78938553    -0.05080
C274        C  0.49112839  0.04764988  0.72786895    -0.02200
C275        C  0.48633215  0.49072169  0.70012328     0.02790
C276        C  0.47304529  0.43871244  0.73500907    -0.05080
C277        C  0.45417936  0.45149459  0.79651974    -0.02180
C278        C  0.45898865  0.00841767  0.82426839     0.02790
C279        C  0.52150678  0.09108164  0.69412370     0.37440
C280        C  0.42379465  0.40806612  0.83026073     0.37430
C281        C  0.45955808  0.00969832  0.89191591     0.35850
C282        C  0.48582781  0.48942128  0.63247311     0.35850
N283        N  0.46343095  0.00861431  0.94595458    -0.38890
N284        N  0.48202538  0.49047285  0.57842643    -0.38970
N285        N  0.39881199  0.37406883  0.85747058    -0.38410
N286        N  0.54648287  0.12507856  0.66690480    -0.38410
C287        C  0.47343761  0.18876178  0.78931517    -0.05080
C288        C  0.45231920  0.20173667  0.72899375    -0.02200
C289        C  0.45715641  0.25839042  0.70083528     0.02790
C290        C  0.47186250  0.31037623  0.73507791    -0.05080
C291        C  0.49298693  0.29740005  0.79539141    -0.02180
C292        C  0.48814019  0.24075084  0.82355319     0.02790
C293        C  0.41998047  0.15877745  0.69706929     0.37440
C294        C  0.52533068  0.34035897  0.82730874     0.37430
C295        C  0.48773780  0.24030614  0.89123268     0.35850
C296        C  0.45749694  0.25886172  0.63315277     0.35850
N297        N  0.48380049  0.24224675  0.94527543    -0.38970
N298        N  0.46136562  0.25696317  0.57910143    -0.38970
N299        N  0.55186948  0.37403506  0.85291274    -0.38410
N300        N  0.39344697  0.12510470  0.67145238    -0.38410
C301        C  0.96843437  0.43650557  0.77714420    -0.05080
C302        C  0.01352393  0.46049049  0.74565277    -0.02200
C303        C  0.01997841  0.02160810  0.73674039     0.02790
C304        C  0.97686225  0.06265934  0.74777238    -0.05080
C305        C  0.93178236  0.03866991  0.77927714    -0.02180
C306        C  0.92530790  0.47755349  0.78812904     0.02790
C307        C  0.05395288  0.42176186  0.72042522     0.37440
C308        C  0.89138942  0.07738674  0.80460149     0.37430
C309        C  0.87069234  0.45839529  0.80079327     0.35850
C310        C  0.07458188  0.04076539  0.72402495     0.35850
N311        N  0.82647724  0.44481598  0.81012334    -0.38970
N312        N  0.11880179  0.05432244  0.71468715    -0.38970
N313        N  0.85917743  0.10731281  0.82653016    -0.38410
N314        N  0.08619663  0.39181379  0.69859615    -0.38410
C315        C  0.97715441  0.31274783  0.77672475    -0.05080
C316        C  0.93109788  0.28843466  0.74769326    -0.02200
C317        C  0.92445853  0.22724997  0.73963085     0.02790
C318        C  0.96813312  0.18641385  0.74831523    -0.05080
C319        C  0.01418881  0.21071813  0.77735501    -0.02180
C320        C  0.02081726  0.27190335  0.78546955     0.02790
C321        C  0.88983676  0.32688072  0.72409519     0.37440
C322        C  0.05543128  0.17225149  0.80096068     0.37430
C323        C  0.07573629  0.29133220  0.79563907     0.35850
C324        C  0.86952256  0.20780990  0.72959629     0.35850
N325        N  0.12002750  0.30537041  0.80337952    -0.38970
N326        N  0.82522278  0.19375664  0.72195400    -0.38970
N327        N  0.08841351  0.14243077  0.82121334    -0.38410
N328        N  0.85683142  0.35666983  0.70383936    -0.38410
In329      In  0.34200818  0.87889548  0.07382702     1.36870
C330        C  0.35768040  0.97733563  0.02894025     0.77840
O331        O  0.28330031  0.87737601  0.99522775    -0.60610
O332        O  0.25152555  0.88418934  0.08845805    -0.51520
C333        C  0.35556733  0.78067740  0.02636237     0.70510
O334        O  0.37376921  0.82508353  0.49980046    -0.46370
C335        C  0.42181079  0.87700768  0.15856695     0.75210
O336        O  0.37508632  0.93297792  0.50152925    -0.58230
O337        O  0.37297521  0.87294983  0.17693929    -0.48330
O338        O  0.33677626  0.97173021  0.08303818    -0.54670
C339        C  0.24224086  0.88170204  0.02939585     0.85390
O340        O  0.33468990  0.78604255  0.08050223    -0.56560
O341        O  0.42591951  0.88310874  0.09994573    -0.59850
In342      In  0.08866386  0.88394678  0.45516026     1.36870
C343        C  0.06729369  0.78752214  0.00209954     0.77840
O344        O  0.02207514  0.84340946  0.40448555    -0.60610
O345        O  0.06005742  0.91278849  0.35771684    -0.51520
C346        C  0.06284958  0.98252357  0.99218095     0.70510
O347        O  0.04657566  0.93849331  0.02157507    -0.46370
C348        C  0.18815347  0.88358926  0.50115349     0.75210
O349        O  0.04816398  0.83287781  0.02682699    -0.58230
O350        O  0.17908512  0.87676756  0.44258424    -0.48330
O351        O  0.09449181  0.79212059  0.45171621    -0.54670
C352        C  0.02103791  0.87741273  0.35859869     0.85390
O353        O  0.08606210  0.97551620  0.43994757    -0.56560
O354        O  0.14702144  0.89202379  0.03422771    -0.59850
In355      In  0.08655640  0.63367997  0.06750972     1.36870
C356        C  0.06545067  0.53675728  0.02176053     0.77840
O357        O  0.14511958  0.64061120  0.98796725    -0.60610
O358        O  0.17681238  0.62502757  0.07953994    -0.51520
C359        C  0.06345679  0.73328635  0.03143191     0.70510
O360        O  0.04613781  0.68987941  0.50177410    -0.46370
C361        C  0.01848061  0.62766925  0.16402984     0.75210
O362        O  0.04653384  0.58184019  0.49642644    -0.58230
O363        O  0.06008536  0.65949419  0.16676947    -0.48330
O364        O  0.09214724  0.54185884  0.07231491    -0.54670
C365        C  0.18612165  0.63177914  0.02098882     0.85390
O366        O  0.08635131  0.72537051  0.08357011    -0.56560
O367        O  0.01637842  0.59715342  0.11518583    -0.59850
In368      In  0.34086487  0.62840113  0.44959881     1.36870
C369        C  0.35566715  0.72694579  0.99511544     0.77840
O370        O  0.42471851  0.63585360  0.42355684    -0.60610
O371        O  0.37276966  0.62091397  0.34680245    -0.51520
C372        C  0.35680945  0.53084565  0.99743522     0.70510
O373        O  0.37344164  0.57591065  0.02405945    -0.46370
C374        C  0.24043727  0.62983337  0.49295290     0.75210
O375        O  0.37265474  0.68255857  0.02259851    -0.58230
O376        O  0.25035528  0.63325114  0.43405662    -0.48330
O377        O  0.33508323  0.72130188  0.44092787    -0.54670
C378        C  0.42130043  0.62736717  0.36525618     0.85390
O379        O  0.33625500  0.53534658  0.44315962    -0.56560
O380        O  0.28116019  0.62486332  0.02733022    -0.59850
C381        C  0.97206108  0.62456677  0.21202693    -0.02230
C382        C  0.97323127  0.87462084  0.31295534    -0.02230
In383      In  0.85883503  0.86556183  0.45749169     1.36870
C384        C  0.88214905  0.76604883  0.99366323     0.77840
O385        O  0.80018046  0.85845225  0.03689903    -0.60610
O386        O  0.76859849  0.87391293  0.44524722    -0.51520
C387        C  0.87972870  0.96255095  0.00325710     0.70510
O388        O  0.89880203  0.91753213  0.02853869    -0.46370
C389        C  0.92679210  0.87158371  0.36090044     0.75210
O390        O  0.89928901  0.80953083  0.02338542    -0.58230
O391        O  0.88538890  0.83945724  0.35838957    -0.48330
O392        O  0.85940658  0.77389073  0.44142238    -0.54670
C393        C  0.75921848  0.86715724  0.50377831     0.85390
O394        O  0.85299951  0.95737476  0.45273469    -0.56560
O395        O  0.92871807  0.90242230  0.40951438    -0.59850
In396      In  0.60441384  0.87062895  0.07484789     1.36870
C397        C  0.58941509  0.77211888  0.02936700     0.77840
O398        O  0.66419696  0.87386764  0.99721460    -0.60610
O399        O  0.69487764  0.86574736  0.09057425    -0.51520
C400        C  0.58868516  0.96820305  0.02691745     0.70510
O401        O  0.57206388  0.92314689  0.50026587    -0.46370
C402        C  0.52397978  0.87176950  0.15914784     0.75210
O403        O  0.57250828  0.81653446  0.50187389    -0.58230
O404        O  0.57251825  0.87804896  0.17763641    -0.48330
O405        O  0.60999828  0.77772611  0.08355455    -0.54670
C406        C  0.70486571  0.86903236  0.03168785     0.85390
O407        O  0.60915020  0.96368774  0.08123807    -0.56560
O408        O  0.52054937  0.86344197  0.10082262    -0.59850
In409      In  0.60326840  0.62025128  0.45065525     1.36870
C410        C  0.58951471  0.71841195  0.99809114     0.77840
O411        O  0.66187764  0.62196644  0.02939925    -0.60610
O412        O  0.69380486  0.61525395  0.43624062    -0.51520
C413        C  0.58780325  0.52173663  0.99545028     0.70510
O414        O  0.57027775  0.56604292  0.02286476    -0.46370
C415        C  0.52347321  0.62213324  0.36586513     0.75210
O416        O  0.57131500  0.67398859  0.02462208    -0.58230
O417        O  0.57231817  0.62620013  0.34752237    -0.48330
O418        O  0.61045551  0.71308563  0.44397994    -0.54670
C419        C  0.70300015  0.61775958  0.49532429     0.85390
O420        O  0.60874618  0.52742231  0.44138213    -0.56560
O421        O  0.51934682  0.61600491  0.42448364    -0.59850
In422      In  0.85653324  0.61544662  0.06986752     1.36870
C423        C  0.87822246  0.71182750  0.02301529     0.77840
O424        O  0.79825745  0.60759797  0.99067259    -0.60610
O425        O  0.76606761  0.62272088  0.08227837    -0.51520
C426        C  0.88224559  0.51680493  0.03282635     0.70510
O427        O  0.89861192  0.56082761  0.50348736    -0.46370
C428        C  0.92419585  0.62181524  0.16645256     0.75210
O429        O  0.89721470  0.66641128  0.49826421    -0.58230
O430        O  0.88523281  0.58636612  0.16723291    -0.48330
O431        O  0.85100005  0.70730441  0.07339629    -0.54670
C432        C  0.75707360  0.61597477  0.02367838     0.85390
O433        O  0.85892707  0.52384743  0.08499401    -0.56560
O434        O  0.92305929  0.65595887  0.12070536    -0.59850
C435        C  0.47267424  0.87446495  0.20132706    -0.02230
C436        C  0.47261683  0.62467766  0.32307670    -0.02230
C437        C  0.47226305  0.56043083  0.28938491    -0.05080
C438        C  0.49112641  0.54765141  0.22786875    -0.02200
C439        C  0.48633062  0.99072318  0.20012299     0.02790
C440        C  0.47304347  0.93871388  0.23500857    -0.05080
C441        C  0.45417690  0.95149608  0.29651901    -0.02180
C442        C  0.45898559  0.50841928  0.32426762     0.02790
C443        C  0.52150580  0.59108292  0.19412433     0.37440
C444        C  0.42379246  0.90806740  0.33025997     0.37430
C445        C  0.45955546  0.50970000  0.39191509     0.35850
C446        C  0.48582750  0.98942271  0.13247279     0.35850
N447        N  0.46342932  0.50861605  0.44595366    -0.38890
N448        N  0.48202631  0.99047421  0.07842599    -0.38970
N449        N  0.39881004  0.87406993  0.35746985    -0.38410
N450        N  0.54648275  0.62507958  0.16690612    -0.38410
C451        C  0.47343553  0.68876345  0.28931486    -0.05080
C452        C  0.45231851  0.70173833  0.22899284    -0.02200
C453        C  0.45715687  0.75839184  0.20083435     0.02790
C454        C  0.47186186  0.81037767  0.23507740    -0.05080
C455        C  0.49298533  0.79740170  0.29539135    -0.02180
C456        C  0.48813822  0.74075250  0.32355311     0.02790
C457        C  0.41998007  0.65877942  0.19706750     0.37440
C458        C  0.52532875  0.84036072  0.32730900     0.37430
C459        C  0.48773613  0.74030800  0.39123263     0.35850
C460        C  0.45750054  0.75886280  0.13315188     0.35850
N461        N  0.48379922  0.74224927  0.44527541    -0.38970
N462        N  0.46137190  0.75696406  0.07910080    -0.38970
N463        N  0.55186730  0.87403688  0.35291325    -0.38410
N464        N  0.39344683  0.62510691  0.17144986    -0.38410
C465        C  0.96843683  0.93650361  0.27714553    -0.05080
C466        C  0.01352654  0.96048828  0.24565447    -0.02200
C467        C  0.01998262  0.52160583  0.23674571     0.02790
C468        C  0.97686609  0.56265734  0.24777500    -0.05080
C469        C  0.93178475  0.53866804  0.27927720    -0.02180
C470        C  0.92531048  0.97755159  0.28813051     0.02790
C471        C  0.05395502  0.92175953  0.22042599     0.37440
C472        C  0.89139091  0.57738514  0.30459907     0.37430
C473        C  0.87069520  0.95839327  0.30079579     0.35850
C474        C  0.07458721  0.54076259  0.22403498     0.35850
N475        N  0.82648006  0.94481418  0.31012597    -0.38970
N476        N  0.11880732  0.55432009  0.21469926    -0.38970
N477        N  0.85917805  0.60731147  0.32652557    -0.38410
N478        N  0.08619825  0.89181110  0.19859649    -0.38410
C479        C  0.97715920  0.81274633  0.27672778    -0.05080
C480        C  0.93110362  0.78843314  0.24769419    -0.02200
C481        C  0.92446520  0.72724849  0.23962942     0.02790
C482        C  0.96813966  0.68641242  0.24831514    -0.05080
C483        C  0.01419494  0.71071701  0.27735583    -0.02180
C484        C  0.02082235  0.77190227  0.28547262     0.02790
C485        C  0.88984280  0.82687928  0.22409551     0.37440
C486        C  0.05543856  0.67225084  0.30095954     0.37430
C487        C  0.07574087  0.79133184  0.29564444     0.35850
C488        C  0.86952983  0.70780844  0.22959092     0.35850
N489        N  0.12003156  0.80537100  0.30338690    -0.38970
N490        N  0.82523020  0.69375576  0.22194623    -0.38970
N491        N  0.08842201  0.64243113  0.32121126    -0.38410
N492        N  0.85683768  0.85666848  0.20383935    -0.38410
In493      In  0.34200971  0.87890151  0.57382768     1.36870
C494        C  0.35768448  0.97734172  0.52894276     0.77840
O495        O  0.28330233  0.87738836  0.49522827    -0.60610
O496        O  0.25152780  0.88420263  0.58845879    -0.51520
C497        C  0.35556202  0.78068247  0.52636143     0.70510
O498        O  0.37377145  0.82507946  0.99980064    -0.46370
C499        C  0.42181222  0.87700763  0.65856726     0.75210
O500        O  0.37508293  0.93297191  0.00152730    -0.58230
O501        O  0.37297645  0.87295334  0.67693977    -0.48330
O502        O  0.33678181  0.97173637  0.58304144    -0.54670
C503        C  0.24224320  0.88171720  0.52939648     0.85390
O504        O  0.33468406  0.78604886  0.58050089    -0.56560
O505        O  0.42592130  0.88310758  0.59994590    -0.59850
In506      In  0.08866128  0.88393248  0.95515800     1.36870
C507        C  0.06730126  0.78753939  0.50211062     0.77840
O508        O  0.02206575  0.84340778  0.90448579    -0.60610
O509        O  0.06005739  0.91277994  0.85771477    -0.51520
C510        C  0.06284647  0.98253708  0.49217889     0.70510
O511        O  0.04657295  0.93850672  0.52157311    -0.46370
C512        C  0.18815081  0.88357089  0.00115279     0.75210
O513        O  0.04816842  0.83289534  0.52683424    -0.58230
O514        O  0.17908281  0.87675085  0.94258316    -0.48330
O515        O  0.09448299  0.79210487  0.95170430    -0.54670
C516        C  0.02103298  0.87741027  0.85859797     0.85390
O517        O  0.08606371  0.97550250  0.93994881    -0.56560
O518        O  0.14702458  0.89204479  0.53422833    -0.59850
In519      In  0.08655258  0.63369201  0.56751021     1.36870
C520        C  0.06544698  0.53677051  0.52175877     0.77840
O521        O  0.14511488  0.64062149  0.48796604    -0.60610
O522        O  0.17680786  0.62503180  0.57953761    -0.51520
C523        C  0.06346171  0.73330350  0.53144194     0.70510
O524        O  0.04613942  0.68985873  0.00176482    -0.46370
C525        C  0.01847242  0.62767574  0.66402543     0.75210
O526        O  0.04653396  0.58182624  0.99643020    -0.58230
O527        O  0.06008646  0.65948632  0.66677752    -0.48330
O528        O  0.09214043  0.54187098  0.57231547    -0.54670
C529        C  0.18611684  0.63178470  0.52098658     0.85390
O530        O  0.08635962  0.72538253  0.58357729    -0.56560
O531        O  0.01636138  0.59717751  0.61516869    -0.59850
In532      In  0.34086895  0.62839734  0.94959981     1.36870
C533        C  0.35566101  0.72695042  0.49511493     0.77840
O534        O  0.42472291  0.63584638  0.92355873    -0.60610
O535        O  0.37277324  0.62091475  0.84680317    -0.51520
C536        C  0.35681074  0.53085126  0.49743676     0.70510
O537        O  0.37344081  0.57591776  0.52405974    -0.46370
C538        C  0.24044215  0.62983046  0.99295546     0.75210
O539        O  0.37264786  0.68256324  0.52259858    -0.58230
O540        O  0.25035957  0.63324593  0.93405887    -0.48330
O541        O  0.33508796  0.72129756  0.94092906    -0.54670
C542        C  0.42130427  0.62736463  0.86525730     0.85390
O543        O  0.33625507  0.53534308  0.94315760    -0.56560
O544        O  0.28115491  0.62486249  0.52732759    -0.59850
C545        C  0.97205480  0.62456903  0.71202565    -0.02230
C546        C  0.97322745  0.87462190  0.81295297    -0.02230
In547      In  0.85883381  0.86556360  0.95749166     1.36870
C548        C  0.88214600  0.76604486  0.49366027     0.77840
O549        O  0.80018191  0.85845122  0.53689966    -0.60610
O550        O  0.76859710  0.87391262  0.94524643    -0.51520
C551        C  0.87972850  0.96255030  0.50325593     0.70510
O552        O  0.89880071  0.91753178  0.52853928    -0.46370
C553        C  0.92678775  0.87158581  0.86089716     0.75210
O554        O  0.89928811  0.80952551  0.52338316    -0.58230
O555        O  0.88538884  0.83945284  0.85839192    -0.48330
O556        O  0.85940989  0.77389259  0.94142483    -0.54670
C557        C  0.75921704  0.86715732  0.00377751     0.85390
O558        O  0.85299774  0.95737617  0.95273719    -0.56560
O559        O  0.92871038  0.90243091  0.90950623    -0.59850
In560      In  0.60441462  0.87062819  0.57484783     1.36870
C561        C  0.58941518  0.77211833  0.52936667     0.77840
O562        O  0.66419843  0.87386881  0.49721529    -0.60610
O563        O  0.69487857  0.86574638  0.59057479    -0.51520
C564        C  0.58868250  0.96820143  0.52691653     0.70510
O565        O  0.57206472  0.92314934  0.00026658    -0.46370
C566        C  0.52398097  0.87176769  0.65914841     0.75210
O567        O  0.57250753  0.81653475  0.00187423    -0.58230
O568        O  0.57251928  0.87805032  0.67763630    -0.48330
O569        O  0.60999892  0.77772528  0.58355397    -0.54670
C570        C  0.70486702  0.86903252  0.53168857     0.85390
O571        O  0.60914782  0.96368720  0.58123710    -0.56560
O572        O  0.52055061  0.86343699  0.60082376    -0.59850
In573      In  0.60327365  0.62025255  0.95065447     1.36870
C574        C  0.58951298  0.71841128  0.49809119     0.77840
O575        O  0.66187091  0.62196270  0.52940131    -0.60610
O576        O  0.69381064  0.61525612  0.93623852    -0.51520
C577        C  0.58779851  0.52173490  0.49544928     0.70510
O578        O  0.57027199  0.56604063  0.52286406    -0.46370
C579        C  0.52347739  0.62213224  0.86586480     0.75210
O580        O  0.57131083  0.67398892  0.52462199    -0.58230
O581        O  0.57232211  0.62620112  0.84752160    -0.48330
O582        O  0.61045685  0.71308745  0.94397954    -0.54670
C583        C  0.70300666  0.61776298  0.99532197     0.85390
O584        O  0.60875115  0.52742332  0.94138315    -0.56560
O585        O  0.51935190  0.61600296  0.92448322    -0.59850
In586      In  0.85652636  0.61544445  0.56986851     1.36870
C587        C  0.87821687  0.71182362  0.52301217     0.77840
O588        O  0.79825040  0.60759494  0.49067471    -0.60610
O589        O  0.76606077  0.62271629  0.58228089    -0.51520
C590        C  0.88224311  0.51680434  0.53282571     0.70510
O591        O  0.89861566  0.56082704  0.00348697    -0.46370
C592        C  0.92418667  0.62181648  0.66645560     0.75210
O593        O  0.89721932  0.66641598  0.99826465    -0.58230
O594        O  0.88523105  0.58635818  0.66723001    -0.48330
O595        O  0.85099277  0.70730202  0.57339204    -0.54670
C596        C  0.75706672  0.61597089  0.52368084     0.85390
O597        O  0.85892386  0.52384521  0.58499320    -0.56560
O598        O  0.92304202  0.65596742  0.62071547    -0.59850
C599        C  0.47267549  0.87446360  0.70132755    -0.02230
C600        C  0.47262025  0.62467599  0.82307719    -0.02230
C601        C  0.47226608  0.56042919  0.78938551    -0.05080
C602        C  0.49112840  0.54764988  0.72786895    -0.02200
C603        C  0.48633213  0.99072170  0.70012329     0.02790
C604        C  0.47304527  0.93871244  0.73500908    -0.05080
C605        C  0.45417934  0.95149460  0.79651974    -0.02180
C606        C  0.45898865  0.50841767  0.82426838     0.02790
C607        C  0.52150679  0.59108164  0.69412370     0.37440
C608        C  0.42379462  0.90806614  0.83026073     0.37430
C609        C  0.45955807  0.50969832  0.89191590     0.35850
C610        C  0.48582779  0.98942129  0.63247312     0.35850
N611        N  0.46343094  0.50861431  0.94595457    -0.38890
N612        N  0.48202535  0.99047286  0.57842643    -0.38970
N613        N  0.39881196  0.87406885  0.85747057    -0.38410
N614        N  0.54648289  0.62507856  0.66690480    -0.38410
C615        C  0.47343760  0.68876178  0.78931515    -0.05080
C616        C  0.45231920  0.70173667  0.72899374    -0.02200
C617        C  0.45715641  0.75839043  0.70083527     0.02790
C618        C  0.47186248  0.81037624  0.73507790    -0.05080
C619        C  0.49298690  0.79740006  0.79539141    -0.02180
C620        C  0.48814017  0.74075084  0.82355319     0.02790
C621        C  0.41998048  0.65877745  0.69706926     0.37440
C622        C  0.52533065  0.84035897  0.82730875     0.37430
C623        C  0.48773778  0.74030613  0.89123267     0.35850
C624        C  0.45749693  0.75886173  0.63315276     0.35850
N625        N  0.48380048  0.74224673  0.94527543    -0.38970
N626        N  0.46136561  0.75696319  0.57910142    -0.38970
N627        N  0.55186944  0.87403507  0.85291276    -0.38410
N628        N  0.39344699  0.62510469  0.67145234    -0.38410
C629        C  0.96843438  0.93650557  0.77714421    -0.05080
C630        C  0.01352393  0.96049050  0.74565276    -0.02200
C631        C  0.01997842  0.52160809  0.73674040     0.02790
C632        C  0.97686226  0.56265934  0.74777239    -0.05080
C633        C  0.93178236  0.53866991  0.77927714    -0.02180
C634        C  0.92530791  0.97755349  0.78812906     0.02790
C635        C  0.05395288  0.92176187  0.72042520     0.37440
C636        C  0.89138942  0.57738674  0.80460149     0.37430
C637        C  0.87069235  0.95839528  0.80079330     0.35850
C638        C  0.07458189  0.54076538  0.72402497     0.35850
N639        N  0.82647725  0.94481598  0.81012338    -0.38970
N640        N  0.11880180  0.55432243  0.71468717    -0.38970
N641        N  0.85917744  0.60731281  0.82653016    -0.38410
N642        N  0.08619662  0.89181381  0.69859612    -0.38410
C643        C  0.97715443  0.81274783  0.77672475    -0.05080
C644        C  0.93109789  0.78843466  0.74769327    -0.02200
C645        C  0.92445854  0.72724996  0.73963085     0.02790
C646        C  0.96813314  0.68641385  0.74831523    -0.05080
C647        C  0.01418883  0.71071813  0.77735500    -0.02180
C648        C  0.02081727  0.77190335  0.78546953     0.02790
C649        C  0.88983677  0.82688072  0.72409520     0.37440
C650        C  0.05543130  0.67225150  0.80096067     0.37430
C651        C  0.07573631  0.79133221  0.79563902     0.35850
C652        C  0.86952257  0.70780989  0.72959629     0.35850
N653        N  0.12002752  0.80537042  0.80337947    -0.38970
N654        N  0.82522280  0.69375663  0.72195400    -0.38970
N655        N  0.08841354  0.64243078  0.82121333    -0.38410
N656        N  0.85683142  0.85666982  0.70383938    -0.38410
loop_ 
_geom_bond_atom_site_label_1 
_geom_bond_atom_site_label_2 
_geom_bond_distance 
_geom_bond_site_symmetry_2 
_ccdc_geom_bond_type 
In1           O3   2.221   1_554  S
In1           O4   2.270       .  S
In1          O12   2.168       .  S
In1           O9   2.331       .  S
In1          O10   2.168       .  S
In1          O13   2.158       .  S
In1         O170   2.158   1_554  S
In1         O172   2.148       .  S
C2           O10   1.268       .  A
C2          O172   1.260       .  A
C2          C372   1.412   1_554  S
O3           C11   1.255   1_556  A
O4           C11   1.279       .  A
C5           O12   1.268       .  A
C5          O170   1.259   1_554  A
C5           C41   1.413   1_554  S
O6         In165   2.158       .  S
O6          C169   1.259       .  A
C7            O9   1.276       .  A
C7           O13   1.260       .  A
C7          C107   1.559       .  S
O8         In165   2.148       .  S
O8          C166   1.260       .  A
C11         C184   1.472       .  S
In14         O16   2.186       .  S
In14         O17   2.294       .  S
In14         O25   2.152       .  S
In14         O22   2.265       .  S
In14         O23   2.138       .  S
In14        O183   2.165       .  S
In14        O185   2.176       .  S
In14        O190   2.230       .  S
C15          O21   1.269       .  A
C15         O187   1.270   1_554  A
C15          C31   1.409       .  S
O16          C24   1.257       .  A
O17          C24   1.269       .  A
C18          O19   1.264   1_556  A
C18         O189   1.261       .  A
C18         C356   1.408   1_556  S
O19        In178   2.165   1_554  S
C20          O22   1.277       .  A
C20         O190   1.254       .  A
C20         C175   1.472       .  S
O21        In178   2.176   1_554  S
O23         C179   1.270       .  A
C24          C54   1.536   1_455  S
O25         C182   1.261       .  A
O26        In178   2.230   1_554  S
O26         C184   1.254       .  A
In27         O29   2.234   1_554  S
In27         O30   2.264       .  S
In27         O38   2.155       .  S
In27         O35   2.290       .  S
In27         O36   2.139       .  S
In27         O39   2.184       .  S
In27        O196   2.163       .  S
In27        O198   2.173   1_554  S
C28          O36   1.270       .  A
C28         O198   1.269   1_554  A
C28         C346   1.408   1_544  S
O29          C37   1.255   1_556  A
O30          C37   1.277       .  A
C31          O38   1.261       .  A
C31         O196   1.264       .  A
O32        In191   2.163       .  S
O32         C195   1.264       .  A
C33          O35   1.270       .  A
C33          O39   1.258       .  A
C33          C53   1.540   1_455  S
O34        In191   2.173       .  S
O34         C192   1.269       .  A
C37         C210   1.474   1_554  S
In40         O42   2.159       .  S
In40         O43   2.331       .  S
In40         O51   2.167       .  S
In40         O48   2.274       .  S
In40         O49   2.170       .  S
In40        O209   2.159       .  S
In40        O211   2.148       .  S
In40        O216   2.220       .  S
C41          O47   1.259   1_556  A
C41         O213   1.269       .  A
O42          C50   1.259       .  A
O43          C50   1.276       .  A
C44          O45   1.258   1_556  A
C44         O215   1.268       .  A
C44         C330   1.412   1_546  S
O45        In204   2.159   1_554  S
C46          O48   1.279       .  A
C46         O216   1.254       .  A
C46         C201   1.474       .  S
O47        In204   2.148   1_554  S
O49         C205   1.269       .  A
C50         C108   1.558       .  S
O51         C208   1.268       .  A
O52        In204   2.220   1_554  S
O52         C210   1.254   1_554  A
C53         C100   1.536       .  S
C53         C140   1.632       .  S
C53         C154   1.632       .  S
C54          C61   1.539       .  S
C54         C137   1.632       .  S
C54         C151   1.632       .  S
In55         O58   2.263       .  S
In55         O66   2.139       .  S
In55         O63   2.289       .  S
In55         O64   2.155       .  S
In55         O67   2.184       .  S
In55        O221   2.234       .  S
In55        O224   2.173       .  S
In55        O226   2.164       .  S
C56          O62   1.264   1_556  A
C56         O228   1.261       .  A
C56          C95   1.409   1_556  S
O57        In219   2.234   1_554  S
O57         C229   1.255       .  A
O58          C65   1.276       .  A
C59          O60   1.269       .  A
C59         O230   1.270   1_554  A
C59         C426   1.409       .  S
O60        In219   2.173   1_554  S
C61          O63   1.270       .  A
C61          O67   1.258       .  A
O62        In219   2.164   1_554  S
O64         C220   1.261       .  A
C65         O221   1.255       .  A
C65         C242   1.473       .  S
O66         C223   1.270       .  A
In68         O70   2.219   1_554  S
In68         O71   2.273       .  S
In68         O79   2.167       .  S
In68         O76   2.331       .  S
In68         O77   2.169       .  S
In68         O80   2.158       .  S
In68        O237   2.159       .  S
In68        O239   2.148       .  S
C69          O77   1.269       .  A
C69         O239   1.259       .  A
C69          C82   1.413   1_554  S
O70          C78   1.254   1_556  A
O71          C78   1.279       .  A
C72          O79   1.268       .  A
C72         O237   1.258       .  A
C72         C413   1.413   1_554  S
O73        In232   2.159       .  S
O73         C236   1.258       .  A
C74          O76   1.276       .  A
C74          O80   1.259       .  A
C74         C107   1.557       .  S
O75        In232   2.148       .  S
O75         C233   1.259       .  A
C78         C229   1.473       .  S
In81         O84   2.270       .  S
In81         O92   2.168       .  S
In81         O89   2.331       .  S
In81         O90   2.167       .  S
In81         O93   2.159       .  S
In81        O247   2.221       .  S
In81        O250   2.147       .  S
In81        O252   2.158       .  S
C82          O88   1.259   1_556  A
C82         O254   1.268       .  A
O83        In245   2.221   1_554  S
O83         C255   1.255   1_554  A
O84          C91   1.280       .  A
C85          O86   1.260   1_556  A
C85         O256   1.268       .  A
C85         C400   1.413   1_546  S
O86        In245   2.147   1_554  S
C87          O89   1.276       .  A
C87          O93   1.260       .  A
C87         C108   1.559       .  S
O88        In245   2.158   1_554  S
O90         C246   1.268       .  A
C91         O247   1.255       .  A
C91         C268   1.473       .  S
O92         C249   1.268       .  A
In94         O96   2.230   1_554  S
In94         O97   2.266       .  S
In94        O105   2.152       .  S
In94        O102   2.295       .  S
In94        O103   2.138       .  S
In94        O106   2.186       .  S
In94        O263   2.165       .  S
In94        O265   2.176   1_554  S
C95         O103   1.270       .  A
C95         O265   1.269   1_554  A
O96         C104   1.254   1_556  A
O97         C104   1.277       .  A
C98         O105   1.261       .  A
C98         O263   1.264       .  A
C98         C387   1.409   1_545  S
O99        In258   2.165       .  S
O99         C262   1.264       .  A
C100        O102   1.269       .  A
C100        O106   1.257       .  A
O101       In258   2.176       .  S
O101        C259   1.269       .  A
C104        C255   1.473   1_554  S
C107        C112   1.654       .  S
C107        C126   1.653       .  S
C108        C109   1.654       .  S
C108        C123   1.653       .  S
C109        C110   1.420       .  A
C109        C114   1.455       .  A
C110        C439   1.452   1_545  A
C110        C115   1.448       .  S
C111        C112   1.455       .  A
C111        C438   1.452       .  A
C111        C118   1.440       .  S
C112        C113   1.420       .  A
C113        C442   1.451       .  A
C113        C116   1.448       .  S
C114        C441   1.451   1_545  A
C114        C117   1.440       .  S
C115        N122   1.158       .  T
C116        N121   1.158       .  T
C117        N119   1.154       .  T
C118        N120   1.154       .  T
C123        C124   1.420       .  A
C123        C128   1.455       .  A
C124        C125   1.451       .  A
C124        C129   1.448       .  S
C125        C126   1.455       .  A
C125        C132   1.440       .  S
C126        C127   1.420       .  A
C127        C128   1.451       .  A
C127        C130   1.448       .  S
C128        C131   1.440       .  S
C129        N136   1.158       .  T
C130        N135   1.158       .  T
C131        N133   1.155       .  T
C132        N134   1.155       .  T
C137        C138   1.416   1_655  A
C137        C142   1.453       .  A
C138        C467   1.440       .  A
C138        C143   1.450       .  S
C139        C140   1.453   1_455  A
C139        C466   1.440   1_545  A
C139        C146   1.450       .  S
C140        C141   1.416       .  A
C141        C470   1.440   1_545  A
C141        C144   1.450       .  S
C142        C469   1.440       .  A
C142        C145   1.450       .  S
C143        N150   1.157       .  T
C144        N149   1.157       .  T
C145        N147   1.158       .  T
C146        N148   1.158       .  T
C151        C152   1.416       .  A
C151        C156   1.453   1_655  A
C152        C153   1.440       .  A
C152        C157   1.450       .  S
C153        C154   1.453       .  A
C153        C160   1.451       .  S
C154        C155   1.416   1_655  A
C155        C156   1.440       .  A
C155        C158   1.450       .  S
C156        C159   1.451       .  S
C157        N164   1.157       .  T
C158        N163   1.157       .  T
C159        N161   1.158       .  T
C160        N162   1.158       .  T
In165       O167   2.221       .  S
In165       O168   2.270       .  S
In165       O176   2.168       .  S
In165       O173   2.331       .  S
In165       O174   2.168       .  S
In165       O177   2.158       .  S
C166        O174   1.268       .  A
C166        C536   1.412       .  S
O167        C175   1.255       .  A
O168        C175   1.279       .  A
C169        O176   1.268       .  A
C169        C205   1.413       .  S
C171        O173   1.276       .  A
C171        O177   1.260       .  A
C171        C271   1.559       .  S
In178       O180   2.186       .  S
In178       O181   2.294       .  S
In178       O189   2.152       .  S
In178       O186   2.265       .  S
In178       O187   2.138       .  S
C179        O185   1.269       .  A
C179        C195   1.409       .  S
O180        C188   1.257       .  A
O181        C188   1.269       .  A
C182        O183   1.264       .  A
C182        C520   1.408       .  S
C184        O186   1.277   1_554  A
C188        C218   1.536   1_455  S
In191       O193   2.234       .  S
In191       O194   2.264       .  S
In191       O202   2.155       .  S
In191       O199   2.290       .  S
In191       O200   2.139       .  S
In191       O203   2.184       .  S
C192        O200   1.270       .  A
C192        C510   1.408   1_545  S
O193        C201   1.255       .  A
O194        C201   1.277       .  A
C195        O202   1.261       .  A
C197        O199   1.270       .  A
C197        O203   1.258       .  A
C197        C217   1.540   1_455  S
In204       O206   2.159       .  S
In204       O207   2.331       .  S
In204       O215   2.167       .  S
In204       O212   2.274       .  S
In204       O213   2.170       .  S
C205        O211   1.259       .  A
O206        C214   1.259       .  A
O207        C214   1.276       .  A
C208        O209   1.258       .  A
C208        C494   1.412   1_545  S
C210        O212   1.279       .  A
C214        C272   1.558       .  S
C217        C264   1.536       .  S
C217        C304   1.632       .  S
C217        C318   1.632       .  S
C218        C225   1.539       .  S
C218        C301   1.632       .  S
C218        C315   1.632       .  S
In219       O222   2.263       .  S
In219       O230   2.139       .  S
In219       O227   2.289       .  S
In219       O228   2.155       .  S
In219       O231   2.184       .  S
C220        O226   1.264       .  A
C220        C259   1.409       .  S
O222        C229   1.276   1_556  A
C223        O224   1.269       .  A
C223        C590   1.409       .  S
C225        O227   1.270       .  A
C225        O231   1.258       .  A
In232       O234   2.219       .  S
In232       O235   2.273       .  S
In232       O243   2.167       .  S
In232       O240   2.331       .  S
In232       O241   2.169       .  S
In232       O244   2.158       .  S
C233        O241   1.269       .  A
C233        C246   1.413       .  S
O234        C242   1.254       .  A
O235        C242   1.279       .  A
C236        O243   1.268       .  A
C236        C577   1.413       .  S
C238        O240   1.276       .  A
C238        O244   1.259       .  A
C238        C271   1.557       .  S
In245       O248   2.270       .  S
In245       O256   2.168       .  S
In245       O253   2.331       .  S
In245       O254   2.167       .  S
In245       O257   2.159       .  S
C246        O252   1.259       .  A
O248        C255   1.280       .  A
C249        O250   1.260       .  A
C249        C564   1.413   1_545  S
C251        O253   1.276       .  A
C251        O257   1.260       .  A
C251        C272   1.559       .  S
In258       O260   2.230       .  S
In258       O261   2.266       .  S
In258       O269   2.152       .  S
In258       O266   2.295       .  S
In258       O267   2.138       .  S
In258       O270   2.186       .  S
C259        O267   1.270       .  A
O260        C268   1.254       .  A
O261        C268   1.277       .  A
C262        O269   1.261       .  A
C262        C551   1.409   1_545  S
C264        O266   1.269       .  A
C264        O270   1.257       .  A
C271        C276   1.654       .  S
C271        C290   1.653       .  S
C272        C273   1.654       .  S
C272        C287   1.653       .  S
C273        C274   1.420       .  A
C273        C278   1.455       .  A
C274        C603   1.452   1_545  A
C274        C279   1.448       .  S
C275        C602   1.452       .  A
C275        C276   1.455       .  A
C275        C282   1.440       .  S
C276        C277   1.420       .  A
C277        C606   1.451       .  A
C277        C280   1.448       .  S
C278        C605   1.451   1_545  A
C278        C281   1.440       .  S
C279        N286   1.158       .  T
C280        N285   1.158       .  T
C281        N283   1.154       .  T
C282        N284   1.154       .  T
C287        C288   1.420       .  A
C287        C292   1.455       .  A
C288        C289   1.451       .  A
C288        C293   1.448       .  S
C289        C290   1.455       .  A
C289        C296   1.440       .  S
C290        C291   1.420       .  A
C291        C292   1.451       .  A
C291        C294   1.448       .  S
C292        C295   1.440       .  S
C293        N300   1.158       .  T
C294        N299   1.158       .  T
C295        N297   1.155       .  T
C296        N298   1.155       .  T
C301        C302   1.416   1_655  A
C301        C306   1.453       .  A
C302        C631   1.440       .  A
C302        C307   1.450       .  S
C303        C630   1.440   1_545  A
C303        C304   1.453   1_455  A
C303        C310   1.450       .  S
C304        C305   1.416       .  A
C305        C634   1.440   1_545  A
C305        C308   1.450       .  S
C306        C633   1.440       .  A
C306        C309   1.450       .  S
C307        N314   1.157       .  T
C308        N313   1.157       .  T
C309        N311   1.158       .  T
C310        N312   1.158       .  T
C315        C316   1.416       .  A
C315        C320   1.453   1_655  A
C316        C317   1.440       .  A
C316        C321   1.450       .  S
C317        C318   1.453       .  A
C317        C324   1.451       .  S
C318        C319   1.416   1_655  A
C319        C320   1.440       .  A
C319        C322   1.450       .  S
C320        C323   1.451       .  S
C321        N328   1.157       .  T
C322        N327   1.157       .  T
C323        N325   1.158       .  T
C324        N326   1.158       .  T
In329       O331   2.221   1_554  S
In329       O332   2.270       .  S
In329       O340   2.168       .  S
In329       O498   2.158   1_554  S
In329       O500   2.148       .  S
In329       O337   2.331       .  S
In329       O338   2.168       .  S
In329       O341   2.158       .  S
C330        O500   1.260       .  A
C330        O338   1.268       .  A
O331        C339   1.255   1_556  A
O332        C339   1.279       .  A
C333        O340   1.268       .  A
C333        O498   1.259   1_554  A
C333        C369   1.413   1_554  S
O334       In493   2.158       .  S
O334        C497   1.259       .  A
C335        O337   1.276       .  A
C335        O341   1.260       .  A
C335        C435   1.559       .  S
O336       In493   2.148       .  S
O336        C494   1.260       .  A
C339        C512   1.472       .  S
In342       O344   2.186       .  S
In342       O345   2.294       .  S
In342       O353   2.152       .  S
In342       O511   2.165       .  S
In342       O513   2.176       .  S
In342       O350   2.265       .  S
In342       O351   2.138       .  S
In342       O518   2.230       .  S
C343        O349   1.269       .  A
C343        O515   1.270   1_554  A
C343        C359   1.409       .  S
O344        C352   1.257       .  A
O345        C352   1.269       .  A
C346        O517   1.261       .  A
C346        O347   1.264   1_556  A
O347       In506   2.165   1_554  S
C348        O350   1.277       .  A
C348        O518   1.254       .  A
C348        C503   1.472       .  S
O349       In506   2.176   1_554  S
O351        C507   1.270       .  A
C352        C382   1.536   1_455  S
O353        C510   1.261       .  A
O354       In506   2.230   1_554  S
O354        C512   1.254       .  A
In355       O357   2.234   1_554  S
In355       O358   2.264       .  S
In355       O366   2.155       .  S
In355       O524   2.163       .  S
In355       O526   2.173   1_554  S
In355       O363   2.290       .  S
In355       O364   2.139       .  S
In355       O367   2.184       .  S
C356        O526   1.269   1_554  A
C356        O364   1.270       .  A
O357        C365   1.255   1_556  A
O358        C365   1.277       .  A
C359        O366   1.261       .  A
C359        O524   1.264       .  A
O360       In519   2.163       .  S
O360        C523   1.264       .  A
C361        O363   1.270       .  A
C361        O367   1.258       .  A
C361        C381   1.540   1_455  S
O362       In519   2.173       .  S
O362        C520   1.269       .  A
C365        C538   1.474   1_554  S
In368       O370   2.159       .  S
In368       O371   2.331       .  S
In368       O379   2.167       .  S
In368       O537   2.159       .  S
In368       O539   2.148       .  S
In368       O376   2.274       .  S
In368       O377   2.170       .  S
In368       O544   2.220       .  S
C369        O375   1.259   1_556  A
C369        O541   1.269       .  A
O370        C378   1.259       .  A
O371        C378   1.276       .  A
C372        O543   1.268       .  A
C372        O373   1.258   1_556  A
O373       In532   2.159   1_554  S
C374        O376   1.279       .  A
C374        O544   1.254       .  A
C374        C529   1.474       .  S
O375       In532   2.148   1_554  S
O377        C533   1.269       .  A
C378        C436   1.558       .  S
O379        C536   1.268       .  A
O380       In532   2.220   1_554  S
O380        C538   1.254   1_554  A
C381        C428   1.536       .  S
C381        C468   1.632       .  S
C381        C482   1.632       .  S
C382        C389   1.539       .  S
C382        C465   1.632       .  S
C382        C479   1.632       .  S
In383       O549   2.234       .  S
In383       O386   2.263       .  S
In383       O394   2.139       .  S
In383       O552   2.173       .  S
In383       O554   2.164       .  S
In383       O391   2.289       .  S
In383       O392   2.155       .  S
In383       O395   2.184       .  S
C384        O390   1.264   1_556  A
C384        O556   1.261       .  A
C384        C423   1.409   1_556  S
O385       In547   2.234   1_554  S
O385        C557   1.255       .  A
O386        C393   1.276       .  A
C387        O558   1.270   1_554  A
C387        O388   1.269       .  A
O388       In547   2.173   1_554  S
C389        O391   1.270       .  A
C389        O395   1.258       .  A
O390       In547   2.164   1_554  S
O392        C548   1.261       .  A
C393        O549   1.255       .  A
C393        C570   1.473       .  S
O394        C551   1.270       .  A
In396       O398   2.219   1_554  S
In396       O399   2.273       .  S
In396       O407   2.167       .  S
In396       O565   2.159       .  S
In396       O567   2.148       .  S
In396       O404   2.331       .  S
In396       O405   2.169       .  S
In396       O408   2.158       .  S
C397        O567   1.259       .  A
C397        O405   1.269       .  A
C397        C410   1.413   1_554  S
O398        C406   1.254   1_556  A
O399        C406   1.279       .  A
C400        O407   1.268       .  A
C400        O565   1.258       .  A
O401       In560   2.159       .  S
O401        C564   1.258       .  A
C402        O404   1.276       .  A
C402        O408   1.259       .  A
C402        C435   1.557       .  S
O403       In560   2.148       .  S
O403        C561   1.259       .  A
C406        C557   1.473       .  S
In409       O575   2.221       .  S
In409       O412   2.270       .  S
In409       O420   2.168       .  S
In409       O578   2.147       .  S
In409       O580   2.158       .  S
In409       O417   2.331       .  S
In409       O418   2.167       .  S
In409       O421   2.159       .  S
C410        O416   1.259   1_556  A
C410        O582   1.268       .  A
O411       In573   2.221   1_554  S
O411        C583   1.255   1_554  A
O412        C419   1.280       .  A
C413        O584   1.268       .  A
C413        O414   1.260   1_556  A
O414       In573   2.147   1_554  S
C415        O417   1.276       .  A
C415        O421   1.260       .  A
C415        C436   1.559       .  S
O416       In573   2.158   1_554  S
O418        C574   1.268       .  A
C419        O575   1.255       .  A
C419        C596   1.473       .  S
O420        C577   1.268       .  A
In422       O424   2.230   1_554  S
In422       O425   2.266       .  S
In422       O433   2.152       .  S
In422       O591   2.165       .  S
In422       O593   2.176   1_554  S
In422       O430   2.295       .  S
In422       O431   2.138       .  S
In422       O434   2.186       .  S
C423        O593   1.269   1_554  A
C423        O431   1.270       .  A
O424        C432   1.254   1_556  A
O425        C432   1.277       .  A
C426        O433   1.261       .  A
C426        O591   1.264       .  A
O427       In586   2.165       .  S
O427        C590   1.264       .  A
C428        O430   1.269       .  A
C428        O434   1.257       .  A
O429       In586   2.176       .  S
O429        C587   1.269       .  A
C432        C583   1.473   1_554  S
C435        C440   1.654       .  S
C435        C454   1.653       .  S
C436        C437   1.654       .  S
C436        C451   1.653       .  S
C437        C438   1.420       .  A
C437        C442   1.455       .  A
C438        C443   1.448       .  S
C439        C440   1.455       .  A
C439        C446   1.440       .  S
C440        C441   1.420       .  A
C441        C444   1.448       .  S
C442        C445   1.440       .  S
C443        N450   1.158       .  T
C444        N449   1.158       .  T
C445        N447   1.154       .  T
C446        N448   1.154       .  T
C451        C452   1.420       .  A
C451        C456   1.455       .  A
C452        C453   1.451       .  A
C452        C457   1.448       .  S
C453        C454   1.455       .  A
C453        C460   1.440       .  S
C454        C455   1.420       .  A
C455        C456   1.451       .  A
C455        C458   1.448       .  S
C456        C459   1.440       .  S
C457        N464   1.158       .  T
C458        N463   1.158       .  T
C459        N461   1.155       .  T
C460        N462   1.155       .  T
C465        C466   1.416   1_655  A
C465        C470   1.453       .  A
C466        C471   1.450       .  S
C467        C468   1.453   1_455  A
C467        C474   1.450       .  S
C468        C469   1.416       .  A
C469        C472   1.450       .  S
C470        C473   1.450       .  S
C471        N478   1.157       .  T
C472        N477   1.157       .  T
C473        N475   1.158       .  T
C474        N476   1.158       .  T
C479        C480   1.416       .  A
C479        C484   1.453   1_655  A
C480        C481   1.440       .  A
C480        C485   1.450       .  S
C481        C482   1.453       .  A
C481        C488   1.451       .  S
C482        C483   1.416   1_655  A
C483        C484   1.440       .  A
C483        C486   1.450       .  S
C484        C487   1.451       .  S
C485        N492   1.157       .  T
C486        N491   1.157       .  T
C487        N489   1.158       .  T
C488        N490   1.158       .  T
In493       O495   2.221       .  S
In493       O496   2.270       .  S
In493       O504   2.168       .  S
In493       O501   2.331       .  S
In493       O502   2.168       .  S
In493       O505   2.158       .  S
C494        O502   1.268       .  A
O495        C503   1.255       .  A
O496        C503   1.279       .  A
C497        O504   1.268       .  A
C497        C533   1.413       .  S
C499        O501   1.276       .  A
C499        O505   1.260       .  A
C499        C599   1.559       .  S
In506       O508   2.186       .  S
In506       O509   2.294       .  S
In506       O517   2.152       .  S
In506       O514   2.265       .  S
In506       O515   2.138       .  S
C507        O513   1.269       .  A
C507        C523   1.409       .  S
O508        C516   1.257       .  A
O509        C516   1.269       .  A
C510        O511   1.264       .  A
C512        O514   1.277   1_554  A
C516        C546   1.536   1_455  S
In519       O521   2.234       .  S
In519       O522   2.264       .  S
In519       O530   2.155       .  S
In519       O527   2.290       .  S
In519       O528   2.139       .  S
In519       O531   2.184       .  S
C520        O528   1.270       .  A
O521        C529   1.255       .  A
O522        C529   1.277       .  A
C523        O530   1.261       .  A
C525        O527   1.270       .  A
C525        O531   1.258       .  A
C525        C545   1.540   1_455  S
In532       O534   2.159       .  S
In532       O535   2.331       .  S
In532       O543   2.167       .  S
In532       O540   2.274       .  S
In532       O541   2.170       .  S
C533        O539   1.259       .  A
O534        C542   1.259       .  A
O535        C542   1.276       .  A
C536        O537   1.258       .  A
C538        O540   1.279       .  A
C542        C600   1.558       .  S
C545        C592   1.536       .  S
C545        C632   1.632       .  S
C545        C646   1.632       .  S
C546        C553   1.539       .  S
C546        C629   1.632       .  S
C546        C643   1.632       .  S
In547       O550   2.263       .  S
In547       O558   2.139       .  S
In547       O555   2.289       .  S
In547       O556   2.155       .  S
In547       O559   2.184       .  S
C548        O554   1.264       .  A
C548        C587   1.409       .  S
O550        C557   1.276   1_556  A
C551        O552   1.269       .  A
C553        O555   1.270       .  A
C553        O559   1.258       .  A
In560       O562   2.219       .  S
In560       O563   2.273       .  S
In560       O571   2.167       .  S
In560       O568   2.331       .  S
In560       O569   2.169       .  S
In560       O572   2.158       .  S
C561        O569   1.269       .  A
C561        C574   1.413       .  S
O562        C570   1.254       .  A
O563        C570   1.279       .  A
C564        O571   1.268       .  A
C566        O568   1.276       .  A
C566        O572   1.259       .  A
C566        C599   1.557       .  S
In573       O576   2.270       .  S
In573       O584   2.168       .  S
In573       O581   2.331       .  S
In573       O582   2.167       .  S
In573       O585   2.159       .  S
C574        O580   1.259       .  A
O576        C583   1.280       .  A
C577        O578   1.260       .  A
C579        O581   1.276       .  A
C579        O585   1.260       .  A
C579        C600   1.559       .  S
In586       O588   2.230       .  S
In586       O589   2.266       .  S
In586       O597   2.152       .  S
In586       O594   2.295       .  S
In586       O595   2.138       .  S
In586       O598   2.186       .  S
C587        O595   1.270       .  A
O588        C596   1.254       .  A
O589        C596   1.277       .  A
C590        O597   1.261       .  A
C592        O594   1.269       .  A
C592        O598   1.257       .  A
C599        C604   1.654       .  S
C599        C618   1.653       .  S
C600        C601   1.654       .  S
C600        C615   1.653       .  S
C601        C602   1.420       .  A
C601        C606   1.455       .  A
C602        C607   1.448       .  S
C603        C604   1.455       .  A
C603        C610   1.440       .  S
C604        C605   1.420       .  A
C605        C608   1.448       .  S
C606        C609   1.440       .  S
C607        N614   1.158       .  T
C608        N613   1.158       .  T
C609        N611   1.154       .  T
C610        N612   1.154       .  T
C615        C616   1.420       .  A
C615        C620   1.455       .  A
C616        C617   1.451       .  A
C616        C621   1.448       .  S
C617        C618   1.455       .  A
C617        C624   1.440       .  S
C618        C619   1.420       .  A
C619        C620   1.451       .  A
C619        C622   1.448       .  S
C620        C623   1.440       .  S
C621        N628   1.158       .  T
C622        N627   1.158       .  T
C623        N625   1.155       .  T
C624        N626   1.155       .  T
C629        C630   1.416   1_655  A
C629        C634   1.453       .  A
C630        C635   1.450       .  S
C631        C632   1.453   1_455  A
C631        C638   1.450       .  S
C632        C633   1.416       .  A
C633        C636   1.450       .  S
C634        C637   1.450       .  S
C635        N642   1.157       .  T
C636        N641   1.157       .  T
C637        N639   1.158       .  T
C638        N640   1.158       .  T
C643        C644   1.416       .  A
C643        C648   1.453   1_655  A
C644        C645   1.440       .  A
C644        C649   1.450       .  S
C645        C646   1.453       .  A
C645        C652   1.451       .  S
C646        C647   1.416   1_655  A
C647        C648   1.440       .  A
C647        C650   1.450       .  S
C648        C651   1.451       .  S
C649        N656   1.157       .  T
C650        N655   1.157       .  T
C651        N653   1.158       .  T
C652        N654   1.158       .  T
