geometry optimzed in LAMMPS
_audit_creation_date              2020-11-30 
_audit_creation_method            'lammps2cif' 
_symmetry_space_group_name_H-M    'P1' 
_symmetry_Int_Tables_number       1 
_symmetry_cell_setting            triclinic 
loop_ 
_symmetry_equiv_pos_as_xyz 
  x,y,z 
_cell_length_a                    35.735525481534104 
_cell_length_b                    36.90015360958166 
_cell_length_c                    34.06935535092437 
_cell_angle_alpha                 89.87337859820833 
_cell_angle_beta                  89.41310323188209 
_cell_angle_gamma                 90.31921855127057 
loop_ 
_atom_site_label 
_atom_site_type_symbol 
_atom_site_fract_x 
_atom_site_fract_y 
_atom_site_fract_z 
_atom_site_charge 
O1          O  0.93140389  0.05972857  0.07129417    -0.56900
C2          C  0.93071867  0.12892487  0.47528037     0.75730
O3          O  0.91566164  0.00424418  0.47230564    -0.58060
C4          C  0.92694417  0.02564896  0.07440284     0.75700
C5          C  0.82142291  0.07095974  0.50348846     0.78090
Cd6        Cd  0.90131252  0.06214676  0.00503218     1.37460
O7          O  0.94231687  0.11627224  0.50764627    -0.56900
O8          O  0.84142863  0.08842058  0.02749150    -0.55710
C9          C  0.94553564  0.01579596  0.45628391     0.78050
O10         O  0.83851353  0.04885484  0.48140709    -0.58080
O11         O  0.90372480  0.11252561  0.45919361    -0.56530
O12         O  0.90736167  0.01046381  0.04856331    -0.56520
O13         O  0.95050877  0.04963645  0.45657271    -0.55700
O14         O  0.54096771  0.11741079  0.48854287    -0.56900
C15         C  0.55847632  0.02406032  0.05601542     0.75730
O16         O  0.57341262  0.01859331  0.43159478    -0.58060
C17         C  0.55184065  0.12872379  0.45514010     0.75700
C18         C  0.66000888  0.07215733  0.49278963     0.78090
Cd19       Cd  0.58049230  0.06280986  0.48665544     1.37460
O20         O  0.55382250  0.05811904  0.05414594    -0.56900
O21         O  0.63745834  0.09160108  0.51232346    -0.55710
C22         C  0.53833636  0.01532438  0.43693059     0.78050
O23         O  0.64553716  0.04844765  0.47066415    -0.58080
O24         O  0.57667063  0.00950009  0.02831976    -0.56530
O25         O  0.57784050  0.11136133  0.43832346    -0.56520
O26         O  0.52401937  0.03556918  0.46278080    -0.55700
O27         O  0.44059531  0.49411120  0.15127000    -0.56900
C28         C  0.44882230  0.40939442  0.08849204     0.75730
O29         O  0.53997016  0.46742171  0.08346452    -0.58060
C30         C  0.45220322  0.00554089  0.18396141     0.75700
C31         C  0.53759898  0.40941268  0.18669601     0.78090
Cd32       Cd  0.49490394  0.45609676  0.13734178     1.37460
O33         O  0.44599182  0.44347823  0.08834181    -0.56900
O34         O  0.50485211  0.41904700  0.19645519    -0.55710
C35         C  0.54059194  0.00153239  0.08637734     0.78050
O36         O  0.55156406  0.42357969  0.15595426    -0.58080
O37         O  0.47103184  0.39614984  0.11317597    -0.56530
O38         O  0.48219709  0.99200759  0.19670780    -0.56520
O39         O  0.52248761  0.01491803  0.11476218    -0.55700
O40         O  0.05033728  0.35360089  0.07142339    -0.56900
C41         C  0.05394581  0.28477159  0.47151349     0.75730
O42         O  0.08196151  0.39803736  0.45683435    -0.58060
C43         C  0.05765380  0.38707155  0.07563244     0.75700
C44         C  0.16340183  0.34115787  0.51106112     0.78090
Cd45       Cd  0.08355084  0.34920935  0.00647637     1.37470
O46         O  0.04673450  0.29213316  0.50712455    -0.56900
O47         O  0.14191694  0.32198568  0.03259175    -0.55710
C48         C  0.04670915  0.40134499  0.45893802     0.78050
O49         O  0.14799764  0.36315562  0.48783824    -0.58080
O50         O  0.07675082  0.30543335  0.45362052    -0.56530
O51         O  0.08023352  0.40100890  0.05110262    -0.56520
O52         O  0.02905499  0.37786269  0.47892259    -0.55700
O53         O  0.43565803  0.35343790  0.05515158    -0.56900
C54         C  0.43131557  0.28431500  0.45591818     0.75730
O55         O  0.33840056  0.36453877  0.47750452    -0.58060
C56         C  0.42978656  0.38715937  0.05897130     0.75700
C57         C  0.44291297  0.39919889  0.43916563     0.78090
Cd58       Cd  0.40374507  0.34970495  0.49041886     1.37470
O59         O  0.44125363  0.29367645  0.49005365    -0.56900
O60         O  0.45890999  0.37834404  0.46306966    -0.55710
C61         C  0.32422712  0.34186077  0.50140567     0.78050
O62         O  0.40771682  0.39548416  0.43642204    -0.58080
O63         O  0.40661868  0.30335766  0.43955191    -0.56530
O64         O  0.40889479  0.40181962  0.03388742    -0.56520
O65         O  0.34675537  0.32202868  0.52012618    -0.55700
O66         O  0.94603725  0.46939944  0.10165798    -0.56900
C67         C  0.94941711  0.41169759  0.20455107     0.75730
O68         O  0.04313863  0.44384106  0.10538523    -0.58060
C69         C  0.94609827  0.00356605  0.10388963     0.75700
C70         C  0.03479547  0.00763539  0.19968287     0.78090
Cd71       Cd  0.99236820  0.45795823  0.15340129     1.37470
O72         O  0.93559084  0.42535672  0.17383854    -0.56900
O73         O  0.00645711  0.99146127  0.21399299    -0.55710
C74         C  0.03841673  0.40990888  0.10483288     0.78050
O75         O  0.04496620  0.49882110  0.16535018    -0.58080
O76         O  0.98210785  0.42183910  0.21363326    -0.56530
O77         O  0.96565156  0.01720118  0.13074463    -0.56520
O78         O  0.01414785  0.39744192  0.12843058    -0.55700
O79         O  0.54768071  0.17320878  0.40478673    -0.56900
C80         C  0.53606432  0.25208935  0.33398971     0.75730
O81         O  0.43869462  0.19126894  0.34168631    -0.58060
C82         C  0.53312904  0.15835352  0.43484274     0.75700
C83         C  0.44960069  0.25481865  0.43463944     0.78090
Cd84       Cd  0.49131100  0.20611947  0.38604724     1.37600
O85         O  0.53435557  0.21806915  0.33057618    -0.56900
O86         O  0.48033269  0.24171238  0.44597307    -0.55710
C87         C  0.44593953  0.15791574  0.33842347     0.78050
O88         O  0.43685991  0.24330136  0.40241217    -0.58080
O89         O  0.51890777  0.26545862  0.36301181    -0.56530
O90         O  0.50036564  0.16802902  0.44441775    -0.56520
O91         O  0.47226217  0.14613965  0.35913860    -0.55700
O92         O  0.04469545  0.10391107  0.31749694    -0.56900
C93         C  0.05339809  0.03710762  0.22050941     0.75730
O94         O  0.08843562  0.15257398  0.21229039    -0.58060
C95         C  0.05712288  0.13467525  0.32764859     0.75700
C96         C  0.16285869  0.08577318  0.25727934     0.78090
Cd97       Cd  0.08402565  0.10013708  0.25691006     1.37470
O98         O  0.04745464  0.04318134  0.25664579    -0.56900
O99         O  0.14049303  0.06557285  0.27659425    -0.55710
C100        C  0.05335111  0.15638247  0.21013916     0.78050
O101        O  0.14862128  0.11282431  0.24037191    -0.58080
O102        O  0.07467010  0.05900879  0.20225421    -0.56530
O103        O  0.08531905  0.14648480  0.30891700    -0.56520
O104        O  0.03321996  0.13145659  0.22475122    -0.55700
O105        O  0.44146826  0.04380769  0.23931114    -0.56900
C106        C  0.42730323  0.13513968  0.30916127     0.75730
O107        O  0.40018674  0.14906536  0.19165829    -0.58060
C108        C  0.43329270  0.03506002  0.20446730     0.75700
C109        C  0.32357401  0.08421242  0.24616919     0.78090
Cd110      Cd  0.40247867  0.09862918  0.23945846     1.37470
O111        O  0.43735368  0.10285775  0.30223473    -0.56900
O112        O  0.34691187  0.06469659  0.26415715    -0.55710
C113        C  0.43538650  0.15331840  0.19070242     0.78050
O114        O  0.33709622  0.11020358  0.22625032    -0.58080
O115        O  0.40258718  0.14817016  0.28713080    -0.56530
O116        O  0.40954214  0.05443523  0.18700241    -0.56520
O117        O  0.45467891  0.12944225  0.20757286    -0.55700
O118        O  0.92966558  0.30949504  0.32324402    -0.56900
C119        C  0.93030976  0.38220824  0.22556696     0.75730
O120        O  0.92194819  0.25955449  0.21710271    -0.58060
C121        C  0.92922147  0.27501659  0.32287590     0.75700
C122        C  0.82414217  0.31619154  0.25146951     0.78090
Cd123      Cd  0.90424080  0.31400607  0.25457183     1.37460
O124        O  0.94111702  0.37081347  0.25878450    -0.56900
O125        O  0.84173088  0.33148487  0.27906377    -0.55710
C126        C  0.95390788  0.27210910  0.20773062     0.78050
O127        O  0.84361705  0.30008247  0.22566885    -0.58080
O128        O  0.90458955  0.36445632  0.20891081    -0.56530
O129        O  0.91421534  0.26010594  0.29366846    -0.56520
O130        O  0.95914764  0.30551379  0.21320975    -0.55700
O131        O  0.54519351  0.36809858  0.24020505    -0.56900
C132        C  0.55495883  0.27434612  0.30393095     0.75730
O133        O  0.56718241  0.25671127  0.19948943    -0.58060
C134        C  0.55669194  0.38011105  0.20722410     0.75700
C135        C  0.66293852  0.31663071  0.23984674     0.78090
Cd136      Cd  0.58290331  0.31253957  0.23599917     1.37470
O137        O  0.55317609  0.30873831  0.30297104    -0.56900
O138        O  0.64229687  0.33159878  0.26546380    -0.55710
C139        C  0.53616655  0.26892546  0.18768906     0.78050
O140        O  0.64654640  0.30062058  0.21192097    -0.58080
O141        O  0.57202914  0.25918946  0.27590849    -0.56530
O142        O  0.58317377  0.36323559  0.19050990    -0.56520
O143        O  0.53115887  0.30252781  0.19137377    -0.55700
O144        O  0.04799070  0.18941273  0.36395985    -0.56900
C145        C  0.03488910  0.25551720  0.45062034     0.75730
O146        O  0.95180911  0.21889577  0.34720256    -0.58060
C147        C  0.03752861  0.15737179  0.35664916     0.75700
C148        C  0.94980159  0.15871768  0.45475862     0.78090
Cd149      Cd  0.99187386  0.20629632  0.40412239     1.37460
O150        O  0.04503870  0.24651035  0.41630916    -0.56900
O151        O  0.98315000  0.16754070  0.46265104    -0.55710
C152        C  0.94759940  0.25246414  0.35262744     0.78050
O153        O  0.93493421  0.17438583  0.42578031    -0.58080
O154        O  0.00606594  0.23994590  0.46471331    -0.56530
O155        O  0.00741342  0.14715595  0.37289890    -0.56520
O156        O  0.96195015  0.26522827  0.38335772    -0.55700
C157        C  0.76323032  0.34971162  0.25052877    -0.00940
C158        C  0.78286219  0.31662746  0.24943743     0.08750
C159        C  0.76298290  0.28372434  0.24557028    -0.01050
C160        C  0.72378672  0.28386205  0.24233081    -0.01050
C161        C  0.70414681  0.31690731  0.24296575     0.08880
C162        C  0.72393121  0.34984426  0.24733165    -0.01250
Br163      Br  0.69748482  0.39535123  0.24687200     0.00200
Br164      Br  0.79019877  0.39506844  0.25423139     0.00130
Br165      Br  0.69688697  0.23840059  0.23930915     0.00170
Br166      Br  0.78919810  0.23809009  0.24691003     0.00190
C167        C  0.44397944  0.21967115  0.19448539    -0.00940
C168        C  0.45354175  0.18673251  0.17615388     0.08750
C169        C  0.48657117  0.18459569  0.15335977    -0.01050
C170        C  0.51234327  0.21360700  0.15313351    -0.01050
C171        C  0.50524972  0.24454090  0.17613688     0.08880
C172        C  0.46994217  0.24838753  0.19500182    -0.01250
Br173      Br  0.45870858  0.29005797  0.22755171     0.00200
Br174      Br  0.39793599  0.22375904  0.22462173     0.00130
Br175      Br  0.55798802  0.21047174  0.12273376     0.00170
Br176      Br  0.49715834  0.14103314  0.12426015     0.00190
C177        C  0.04457899  0.22224326  0.21768887    -0.00940
C178        C  0.03608918  0.19028233  0.19692007     0.08750
C179        C  0.00473068  0.18916104  0.17224591    -0.01050
C180        C  0.97938957  0.21821657  0.17201798    -0.01050
C181        C  0.98519978  0.24808478  0.19694354     0.08880
C182        C  0.01896602  0.25093272  0.21821479    -0.01250
Br183      Br  0.02801443  0.29086504  0.25387901     0.00200
Br184      Br  0.08818387  0.22475836  0.25095018     0.00130
Br185      Br  0.93594364  0.21649721  0.13899693     0.00170
Br186      Br  0.99569513  0.14688100  0.14050975     0.00190
C187        C  0.26085636  0.08440609  0.21431108    -0.00940
C188        C  0.28253776  0.07780434  0.24801209     0.08750
C189        C  0.26437565  0.06751258  0.28347041    -0.01050
C190        C  0.22493254  0.06795362  0.28622958    -0.01050
C191        C  0.20354534  0.07869432  0.25360163     0.08880
C192        C  0.22162888  0.08487846  0.21710495    -0.01250
Br193      Br  0.19278422  0.09278021  0.17006125     0.00200
Br194      Br  0.28451671  0.09153884  0.16347103     0.00130
Br195      Br  0.20078826  0.05585887  0.33555115     0.00170
Br196      Br  0.29292259  0.05476534  0.32928098     0.00190
C197        C  0.22369160  0.30783858  0.50043246    -0.00940
C198        C  0.20455467  0.33911239  0.51306020     0.08750
C199        C  0.22493599  0.37001579  0.02459490    -0.01050
C200        C  0.26420121  0.37030959  0.02191856    -0.01050
C201        C  0.28334740  0.33970215  0.50765296     0.08880
C202        C  0.26313124  0.30812083  0.49775105    -0.01250
Br203      Br  0.28925611  0.26621113  0.47800048     0.00200
Br204      Br  0.19580005  0.26559616  0.48429590     0.00130
Br205      Br  0.29193711  0.41253895  0.03850948     0.00170
Br206      Br  0.19889959  0.41192157  0.04458147     0.00190
C207        C  0.52847122  0.45202627  0.41147074    -0.00940
C208        C  0.51473272  0.48740503  0.41765323     0.08750
C209        C  0.47576922  0.49335329  0.41523375    -0.01050
C210        C  0.45068966  0.46381912  0.41698084    -0.01050
C211        C  0.46484034  0.42821499  0.41911282     0.08880
C212        C  0.50329612  0.42251502  0.41144343    -0.01250
Br213      Br  0.52168987  0.37390593  0.40339142     0.00200
Br214      Br  0.58148498  0.44277626  0.40742243     0.00130
Br215      Br  0.39769597  0.47315440  0.42147406     0.00170
Br216      Br  0.45669870  0.04220251  0.41212727     0.00190
C217        C  0.03811067  0.46789100  0.45644669    -0.00940
C218        C  0.02685091  0.43321637  0.44364861     0.08750
C219        C  0.99170205  0.42867864  0.42585265    -0.01050
C220        C  0.96598937  0.45743556  0.42556981    -0.01050
C221        C  0.97533606  0.49070633  0.44332947     0.08880
C222        C  0.01236921  0.49656397  0.45659076    -0.01250
Br223      Br  0.02696993  0.04166513  0.98132644     0.00200
Br224      Br  0.08669595  0.47509670  0.98001215     0.00130
Br225      Br  0.91732125  0.45068463  0.40264175     0.00170
Br226      Br  0.97812232  0.38227991  0.40400303     0.00190
C227        C  0.72355878  0.07449558  0.46122444    -0.00940
C228        C  0.70120691  0.07649794  0.49554135     0.08750
C229        C  0.71858175  0.08139648  0.03227859    -0.01050
C230        C  0.75795438  0.08101878  0.03497011    -0.01050
C231        C  0.78025549  0.07585692  0.50087887     0.08880
C232        C  0.76281287  0.07435996  0.46383369    -0.01250
Br233      Br  0.79240998  0.07432449  0.41594424     0.00200
Br234      Br  0.70062256  0.07387961  0.41003943     0.00130
Br235      Br  0.78057461  0.08586504  0.08602133     0.00170
Br236      Br  0.68886199  0.08672133  0.07965052     0.00190
O237        O  0.93140390  0.05972859  0.57129417    -0.56900
C238        C  0.93071868  0.12892485  0.97528037     0.75730
O239        O  0.91566163  0.00424416  0.97230566    -0.58060
C240        C  0.92694417  0.02564898  0.57440284     0.75700
C241        C  0.82142290  0.07095973  0.00348847     0.78090
Cd242      Cd  0.90131253  0.06214678  0.50503218     1.37460
O243        O  0.94231687  0.11627222  0.00764627    -0.56900
O244        O  0.84142864  0.08842059  0.52749150    -0.55710
C245        C  0.94553562  0.01579594  0.95628391     0.78050
O246        O  0.83851352  0.04885483  0.98140710    -0.58080
O247        O  0.90372481  0.11252558  0.95919360    -0.56530
O248        O  0.90736168  0.01046383  0.54856331    -0.56520
O249        O  0.95050875  0.04963643  0.95657270    -0.55700
O250        O  0.54096771  0.11741080  0.98854288    -0.56900
C251        C  0.55847633  0.02406031  0.55601541     0.75730
O252        O  0.57341261  0.01859332  0.93159479    -0.58060
C253        C  0.55184065  0.12872380  0.95514011     0.75700
C254        C  0.66000887  0.07215733  0.99278965     0.78090
Cd255      Cd  0.58049230  0.06280986  0.98665545     1.37460
O256        O  0.55382250  0.05811903  0.55414594    -0.56900
O257        O  0.63745834  0.09160107  0.01232348    -0.55710
C258        C  0.53833636  0.01532439  0.93693060     0.78050
O259        O  0.64553715  0.04844766  0.97066416    -0.58080
O260        O  0.57667064  0.00950008  0.52831975    -0.56530
O261        O  0.57784050  0.11136134  0.93832347    -0.56520
O262        O  0.52401936  0.03556919  0.96278081    -0.55700
O263        O  0.44059530  0.49411120  0.65127000    -0.56900
C264        C  0.44882229  0.40939441  0.58849205     0.75730
O265        O  0.53997014  0.46742170  0.58346452    -0.58060
C266        C  0.45220324  0.00554088  0.68396141     0.75700
C267        C  0.53759897  0.40941268  0.68669601     0.78090
Cd268      Cd  0.49490392  0.45609676  0.63734179     1.37460
O269        O  0.44599180  0.44347822  0.58834182    -0.56900
O270        O  0.50485210  0.41904699  0.69645519    -0.55710
C271        C  0.54059195  0.00153238  0.58637734     0.78050
O272        O  0.55156405  0.42357970  0.65595426    -0.58080
O273        O  0.47103183  0.39614984  0.61317597    -0.56530
O274        O  0.48219712  0.99200759  0.69670780    -0.56520
O275        O  0.52248763  0.01491802  0.61476218    -0.55700
O276        O  0.05033726  0.35360088  0.57142338    -0.56900
C277        C  0.05394582  0.28477158  0.97151351     0.75730
O278        O  0.08196151  0.39803734  0.95683435    -0.58060
C279        C  0.05765379  0.38707154  0.57563244     0.75700
C280        C  0.16340184  0.34115788  0.01106112     0.78090
Cd281      Cd  0.08355083  0.34920935  0.50647637     1.37470
O282        O  0.04673450  0.29213316  0.00712456    -0.56900
O283        O  0.14191692  0.32198568  0.53259174    -0.55710
C284        C  0.04670915  0.40134498  0.95893802     0.78050
O285        O  0.14799765  0.36315562  0.98783824    -0.58080
O286        O  0.07675084  0.30543333  0.95362054    -0.56530
O287        O  0.08023351  0.40100889  0.55110263    -0.56520
O288        O  0.02905500  0.37786268  0.97892259    -0.55700
O289        O  0.43565803  0.35343789  0.55515158    -0.56900
C290        C  0.43131557  0.28431501  0.95591817     0.75730
O291        O  0.33840057  0.36453878  0.97750451    -0.58060
C292        C  0.42978654  0.38715935  0.55897130     0.75700
C293        C  0.44291300  0.39919890  0.93916563     0.78090
Cd294      Cd  0.40374508  0.34970497  0.99041886     1.37470
O295        O  0.44125363  0.29367645  0.99005365    -0.56900
O296        O  0.45891000  0.37834404  0.96306966    -0.55710
C297        C  0.32422713  0.34186079  0.00140566     0.78050
O298        O  0.40771685  0.39548417  0.93642203    -0.58080
O299        O  0.40661869  0.30335767  0.93955190    -0.56530
O300        O  0.40889478  0.40181960  0.53388743    -0.56520
O301        O  0.34675538  0.32202870  0.02012618    -0.55700
O302        O  0.94603726  0.46939941  0.60165794    -0.56900
C303        C  0.94941711  0.41169756  0.70455108     0.75730
O304        O  0.04313862  0.44384104  0.60538525    -0.58060
C305        C  0.94609828  0.00356608  0.60388963     0.75700
C306        C  0.03479548  0.00763540  0.69968287     0.78090
Cd307      Cd  0.99236818  0.45795821  0.65340129     1.37470
O308        O  0.93559082  0.42535671  0.67383856    -0.56900
O309        O  0.00645711  0.99146128  0.71399298    -0.55710
C310        C  0.03841671  0.40990887  0.60483288     0.78050
O311        O  0.04496617  0.49882111  0.66535014    -0.58080
O312        O  0.98210786  0.42183907  0.71363326    -0.56530
O313        O  0.96565157  0.01720120  0.63074462    -0.56520
O314        O  0.01414781  0.39744191  0.62843056    -0.55700
O315        O  0.54768072  0.17320879  0.90478674    -0.56900
C316        C  0.53606432  0.25208936  0.83398971     0.75730
O317        O  0.43869463  0.19126894  0.84168632    -0.58060
C318        C  0.53312904  0.15835353  0.93484274     0.75700
C319        C  0.44960070  0.25481866  0.93463943     0.78090
Cd320      Cd  0.49131101  0.20611948  0.88604724     1.37600
O321        O  0.53435557  0.21806915  0.83057618    -0.56900
O322        O  0.48033269  0.24171238  0.94597307    -0.55710
C323        C  0.44593954  0.15791574  0.83842347     0.78050
O324        O  0.43685991  0.24330137  0.90241216    -0.58080
O325        O  0.51890778  0.26545863  0.86301181    -0.56530
O326        O  0.50036564  0.16802903  0.94441775    -0.56520
O327        O  0.47226219  0.14613966  0.85913860    -0.55700
O328        O  0.04469553  0.10391104  0.81749700    -0.56900
C329        C  0.05339811  0.03710762  0.72050941     0.75730
O330        O  0.08843562  0.15257396  0.71229037    -0.58060
C331        C  0.05712293  0.13467526  0.82764860     0.75700
C332        C  0.16285872  0.08577317  0.75727935     0.78090
Cd333      Cd  0.08402568  0.10013706  0.75691007     1.37470
O334        O  0.04745465  0.04318135  0.75664579    -0.56900
O335        O  0.14049306  0.06557284  0.77659426    -0.55710
C336        C  0.05335111  0.15638244  0.71013916     0.78050
O337        O  0.14862131  0.11282429  0.74037191    -0.58080
O338        O  0.07467014  0.05900878  0.70225422    -0.56530
O339        O  0.08531905  0.14648483  0.80891696    -0.56520
O340        O  0.03321996  0.13145656  0.72475125    -0.55700
O341        O  0.44146829  0.04380769  0.73931114    -0.56900
C342        C  0.42730325  0.13513968  0.80916127     0.75730
O343        O  0.40018675  0.14906536  0.69165830    -0.58060
C344        C  0.43329273  0.03506002  0.70446730     0.75700
C345        C  0.32357404  0.08421240  0.74616920     0.78090
Cd346      Cd  0.40247870  0.09862917  0.73945846     1.37470
O347        O  0.43735370  0.10285776  0.80223472    -0.56900
O348        O  0.34691190  0.06469659  0.76415716    -0.55710
C349        C  0.43538651  0.15331840  0.69070242     0.78050
O350        O  0.33709624  0.11020356  0.72625032    -0.58080
O351        O  0.40258719  0.14817015  0.78713081    -0.56530
O352        O  0.40954216  0.05443522  0.68700241    -0.56520
O353        O  0.45467892  0.12944225  0.70757285    -0.55700
O354        O  0.92966559  0.30949500  0.82324401    -0.56900
C355        C  0.93030977  0.38220821  0.72556697     0.75730
O356        O  0.92194818  0.25955444  0.71710272    -0.58060
C357        C  0.92922149  0.27501656  0.82287590     0.75700
C358        C  0.82414217  0.31619151  0.75146951     0.78090
Cd359      Cd  0.90424080  0.31400603  0.75457182     1.37460
O360        O  0.94111705  0.37081342  0.75878449    -0.56900
O361        O  0.84173089  0.33148484  0.77906377    -0.55710
C362        C  0.95390786  0.27210905  0.70773059     0.78050
O363        O  0.84361704  0.30008243  0.72566885    -0.58080
O364        O  0.90458955  0.36445630  0.70891082    -0.56530
O365        O  0.91421536  0.26010590  0.79366846    -0.56520
O366        O  0.95914761  0.30551374  0.71320969    -0.55700
O367        O  0.54519351  0.36809859  0.74020506    -0.56900
C368        C  0.55495884  0.27434612  0.80393095     0.75730
O369        O  0.56718242  0.25671128  0.69948944    -0.58060
C370        C  0.55669194  0.38011106  0.70722410     0.75700
C371        C  0.66293852  0.31663072  0.73984674     0.78090
Cd372      Cd  0.58290331  0.31253958  0.73599917     1.37470
O373        O  0.55317609  0.30873831  0.80297105    -0.56900
O374        O  0.64229687  0.33159879  0.76546380    -0.55710
C375        C  0.53616656  0.26892547  0.68768906     0.78050
O376        O  0.64654640  0.30062059  0.71192098    -0.58080
O377        O  0.57202914  0.25918947  0.77590849    -0.56530
O378        O  0.58317376  0.36323560  0.69050990    -0.56520
O379        O  0.53115887  0.30252781  0.69137378    -0.55700
O380        O  0.04799070  0.18941275  0.86395981    -0.56900
C381        C  0.03488911  0.25551718  0.95062036     0.75730
O382        O  0.95180914  0.21889574  0.84720256    -0.58060
C383        C  0.03752865  0.15737179  0.85664917     0.75700
C384        C  0.94980161  0.15871765  0.95475862     0.78090
Cd385      Cd  0.99187388  0.20629630  0.90412240     1.37460
O386        O  0.04503873  0.24651032  0.91630918    -0.56900
O387        O  0.98315000  0.16754069  0.96265105    -0.55710
C388        C  0.94759942  0.25246411  0.85262744     0.78050
O389        O  0.93493424  0.17438579  0.92578030    -0.58080
O390        O  0.00606595  0.23994589  0.96471332    -0.56530
O391        O  0.00741350  0.14715592  0.87289897    -0.56520
O392        O  0.96195016  0.26522824  0.88335772    -0.55700
C393        C  0.76323033  0.34971160  0.75052877    -0.00940
C394        C  0.78286219  0.31662744  0.74943744     0.08750
C395        C  0.76298289  0.28372432  0.74557030    -0.01050
C396        C  0.72378671  0.28386203  0.74233083    -0.01050
C397        C  0.70414682  0.31690730  0.74296576     0.08880
C398        C  0.72393122  0.34984425  0.74733165    -0.01250
Br399      Br  0.69748484  0.39535123  0.74687198     0.00200
Br400      Br  0.79019880  0.39506842  0.75423138     0.00130
Br401      Br  0.69688695  0.23840059  0.73930918     0.00170
Br402      Br  0.78919808  0.23809006  0.74691006     0.00190
C403        C  0.44397945  0.21967115  0.69448540    -0.00940
C404        C  0.45354176  0.18673251  0.67615389     0.08750
C405        C  0.48657118  0.18459569  0.65335977    -0.01050
C406        C  0.51234328  0.21360700  0.65313351    -0.01050
C407        C  0.50524973  0.24454090  0.67613688     0.08880
C408        C  0.46994218  0.24838754  0.69500182    -0.01250
Br409      Br  0.45870858  0.29005797  0.72755170     0.00200
Br410      Br  0.39793599  0.22375904  0.72462173     0.00130
Br411      Br  0.55798803  0.21047175  0.62273376     0.00170
Br412      Br  0.49715835  0.14103315  0.62426016     0.00190
C413        C  0.04457899  0.22224324  0.71768879    -0.00940
C414        C  0.03608917  0.19028228  0.69692005     0.08750
C415        C  0.00473064  0.18916096  0.67224592    -0.01050
C416        C  0.97938953  0.21821649  0.67201798    -0.01050
C417        C  0.98519976  0.24808473  0.69694350     0.08880
C418        C  0.01896602  0.25093270  0.71821471    -0.01250
Br419      Br  0.02801447  0.29086506  0.75387885     0.00200
Br420      Br  0.08818390  0.22475838  0.75095006     0.00130
Br421      Br  0.93594357  0.21649709  0.63899698     0.00170
Br422      Br  0.99569506  0.14688089  0.64050982     0.00190
C423        C  0.26085638  0.08440605  0.71431108    -0.00940
C424        C  0.28253779  0.07780432  0.74801209     0.08750
C425        C  0.26437568  0.06751257  0.78347043    -0.01050
C426        C  0.22493257  0.06795361  0.78622960    -0.01050
C427        C  0.20354537  0.07869430  0.75360164     0.08880
C428        C  0.22162890  0.08487842  0.71710496    -0.01250
Br429      Br  0.19278425  0.09278015  0.67006125     0.00200
Br430      Br  0.28451674  0.09153877  0.66347103     0.00130
Br431      Br  0.20078829  0.05585889  0.83555117     0.00170
Br432      Br  0.29292262  0.05476535  0.82928100     0.00190
C433        C  0.22369161  0.30783859  0.00043247    -0.00940
C434        C  0.20455468  0.33911240  0.01306019     0.08750
C435        C  0.22493598  0.37001578  0.52459492    -0.01050
C436        C  0.26420121  0.37030957  0.52191858    -0.01050
C437        C  0.28334741  0.33970216  0.00765295     0.08880
C438        C  0.26313125  0.30812085  0.99775105    -0.01250
Br439      Br  0.28925612  0.26621114  0.97800049     0.00200
Br440      Br  0.19580006  0.26559616  0.98429592     0.00130
Br441      Br  0.29193710  0.41253893  0.53850951     0.00170
Br442      Br  0.19889959  0.41192155  0.54458150     0.00190
C443        C  0.52847125  0.45202627  0.91147076    -0.00940
C444        C  0.51473275  0.48740503  0.91765323     0.08750
C445        C  0.47576925  0.49335330  0.91523375    -0.01050
C446        C  0.45068969  0.46381912  0.91698084    -0.01050
C447        C  0.46484037  0.42821500  0.91911283     0.08880
C448        C  0.50329615  0.42251502  0.91144344    -0.01250
Br449      Br  0.52168989  0.37390593  0.90339144     0.00200
Br450      Br  0.58148501  0.44277626  0.90742247     0.00130
Br451      Br  0.39769600  0.47315441  0.92147404     0.00170
Br452      Br  0.45669869  0.04220252  0.91212729     0.00190
C453        C  0.03811068  0.46789099  0.95644668    -0.00940
C454        C  0.02685091  0.43321635  0.94364861     0.08750
C455        C  0.99170204  0.42867863  0.92585265    -0.01050
C456        C  0.96598937  0.45743555  0.92556981    -0.01050
C457        C  0.97533606  0.49070632  0.94332946     0.08880
C458        C  0.01236922  0.49656396  0.95659075    -0.01250
Br459      Br  0.02696994  0.04166515  0.48132650     0.00200
Br460      Br  0.08669594  0.47509671  0.48001218     0.00130
Br461      Br  0.91732124  0.45068461  0.90264177     0.00170
Br462      Br  0.97812231  0.38227989  0.90400305     0.00190
C463        C  0.72355877  0.07449559  0.96122445    -0.00940
C464        C  0.70120690  0.07649794  0.99554136     0.08750
C465        C  0.71858176  0.08139650  0.53227857    -0.01050
C466        C  0.75795439  0.08101880  0.53497010    -0.01050
C467        C  0.78025548  0.07585692  0.00087888     0.08880
C468        C  0.76281287  0.07435997  0.96383370    -0.01250
Br469      Br  0.79240997  0.07432451  0.91594424     0.00200
Br470      Br  0.70062255  0.07387964  0.91003944     0.00130
Br471      Br  0.78057461  0.08586507  0.58602132     0.00170
Br472      Br  0.68886199  0.08672136  0.57965050     0.00190
O473        O  0.93140392  0.55972859  0.07129417    -0.56900
C474        C  0.93071867  0.62892486  0.47528038     0.75730
O475        O  0.91566162  0.50424418  0.47230565    -0.58060
C476        C  0.92694418  0.52564899  0.07440285     0.75700
C477        C  0.82142289  0.57095973  0.50348847     0.78090
Cd478      Cd  0.90131254  0.56214678  0.00503219     1.37460
O479        O  0.94231685  0.61627224  0.50764628    -0.56900
O480        O  0.84142865  0.58842060  0.02749150    -0.55710
C481        C  0.94553562  0.51579596  0.45628391     0.78050
O482        O  0.83851351  0.54885484  0.48140709    -0.58080
O483        O  0.90372480  0.61252559  0.45919361    -0.56530
O484        O  0.90736167  0.51046384  0.04856332    -0.56520
O485        O  0.95050876  0.54963645  0.45657272    -0.55700
O486        O  0.54096770  0.61741079  0.48854287    -0.56900
C487        C  0.55847634  0.52406032  0.05601542     0.75730
O488        O  0.57341260  0.51859331  0.43159478    -0.58060
C489        C  0.55184064  0.62872379  0.45514010     0.75700
C490        C  0.66000886  0.57215733  0.49278964     0.78090
Cd491      Cd  0.58049229  0.56280986  0.48665544     1.37460
O492        O  0.55382251  0.55811904  0.05414594    -0.56900
O493        O  0.63745832  0.59160107  0.51232347    -0.55710
C494        C  0.53833635  0.51532438  0.43693059     0.78050
O495        O  0.64553714  0.54844765  0.47066415    -0.58080
O496        O  0.57667065  0.50950009  0.02831976    -0.56530
O497        O  0.57784050  0.61136134  0.43832346    -0.56520
O498        O  0.52401935  0.53556919  0.46278080    -0.55700
O499        O  0.44059529  0.99411120  0.15127000    -0.56900
C500        C  0.44882229  0.90939442  0.08849204     0.75730
O501        O  0.53997014  0.96742171  0.08346452    -0.58060
C502        C  0.45220324  0.50554089  0.18396140     0.75700
C503        C  0.53759897  0.90941269  0.18669601     0.78090
Cd504      Cd  0.49490392  0.95609676  0.13734179     1.37460
O505        O  0.44599181  0.94347823  0.08834181    -0.56900
O506        O  0.50485210  0.91904700  0.19645519    -0.55710
C507        C  0.54059196  0.50153239  0.08637734     0.78050
O508        O  0.55156405  0.92357971  0.15595426    -0.58080
O509        O  0.47103183  0.89614984  0.11317597    -0.56530
O510        O  0.48219712  0.49200759  0.19670779    -0.56520
O511        O  0.52248763  0.51491803  0.11476218    -0.55700
O512        O  0.05033727  0.85360088  0.07142339    -0.56900
C513        C  0.05394583  0.78477159  0.47151350     0.75730
O514        O  0.08196153  0.89803736  0.45683435    -0.58060
C515        C  0.05765379  0.88707153  0.07563244     0.75700
C516        C  0.16340184  0.84115788  0.51106112     0.78090
Cd517      Cd  0.08355084  0.84920934  0.00647637     1.37470
O518        O  0.04673451  0.79213317  0.50712456    -0.56900
O519        O  0.14191693  0.82198567  0.03259175    -0.55710
C520        C  0.04670916  0.90134500  0.45893801     0.78050
O521        O  0.14799765  0.86315563  0.48783823    -0.58080
O522        O  0.07675084  0.80543335  0.45362053    -0.56530
O523        O  0.08023351  0.90100889  0.05110263    -0.56520
O524        O  0.02905500  0.87786269  0.47892258    -0.55700
O525        O  0.43565803  0.85343790  0.05515158    -0.56900
C526        C  0.43131558  0.78431500  0.45591817     0.75730
O527        O  0.33840058  0.86453878  0.47750452    -0.58060
C528        C  0.42978655  0.88715936  0.05897130     0.75700
C529        C  0.44291299  0.89919889  0.43916563     0.78090
Cd530      Cd  0.40374508  0.84970496  0.49041886     1.37470
O531        O  0.44125364  0.79367645  0.49005365    -0.56900
O532        O  0.45891000  0.87834404  0.46306965    -0.55710
C533        C  0.32422713  0.84186078  0.50140567     0.78050
O534        O  0.40771684  0.89548416  0.43642203    -0.58080
O535        O  0.40661869  0.80335766  0.43955191    -0.56530
O536        O  0.40889478  0.90181961  0.03388742    -0.56520
O537        O  0.34675538  0.82202869  0.52012618    -0.55700
O538        O  0.94603726  0.96939941  0.10165796    -0.56900
C539        C  0.94941712  0.91169756  0.20455108     0.75730
O540        O  0.04313863  0.94384104  0.10538525    -0.58060
C541        C  0.94609829  0.50356608  0.10388963     0.75700
C542        C  0.03479549  0.50763539  0.19968289     0.78090
Cd543      Cd  0.99236819  0.95795821  0.15340129     1.37470
O544        O  0.93559083  0.92535670  0.17383856    -0.56900
O545        O  0.00645711  0.49146128  0.21399299    -0.55710
C546        C  0.03841672  0.90990887  0.10483289     0.78050
O547        O  0.04496618  0.99882111  0.16535016    -0.58080
O548        O  0.98210786  0.92183907  0.21363326    -0.56530
O549        O  0.96565160  0.51720120  0.13074461    -0.56520
O550        O  0.01414783  0.89744190  0.12843057    -0.55700
O551        O  0.54768072  0.67320879  0.40478673    -0.56900
C552        C  0.53606432  0.75208936  0.33398971     0.75730
O553        O  0.43869463  0.69126895  0.34168630    -0.58060
C554        C  0.53312904  0.65835352  0.43484273     0.75700
C555        C  0.44960070  0.75481866  0.43463943     0.78090
Cd556      Cd  0.49131101  0.70611948  0.38604723     1.37600
O557        O  0.53435558  0.71806915  0.33057618    -0.56900
O558        O  0.48033270  0.74171239  0.44597306    -0.55710
C559        C  0.44593954  0.65791575  0.33842346     0.78050
O560        O  0.43685991  0.74330136  0.40241216    -0.58080
O561        O  0.51890777  0.76545863  0.36301180    -0.56530
O562        O  0.50036564  0.66802903  0.44441774    -0.56520
O563        O  0.47226218  0.64613966  0.35913859    -0.55700
O564        O  0.04469553  0.60391103  0.31749702    -0.56900
C565        C  0.05339811  0.53710761  0.22050943     0.75730
O566        O  0.08843562  0.65257395  0.21229041    -0.58060
C567        C  0.05712293  0.63467525  0.32764862     0.75700
C568        C  0.16285872  0.58577316  0.25727937     0.78090
Cd569      Cd  0.08402568  0.60013705  0.25691010     1.37470
O570        O  0.04745465  0.54318134  0.25664581    -0.56900
O571        O  0.14049306  0.56557283  0.27659429    -0.55710
C572        C  0.05335111  0.65638243  0.21013919     0.78050
O573        O  0.14862131  0.61282428  0.24037193    -0.58080
O574        O  0.07467014  0.55900877  0.20225425    -0.56530
O575        O  0.08531906  0.64648482  0.30891699    -0.56520
O576        O  0.03321996  0.63145655  0.22475128    -0.55700
O577        O  0.44146829  0.54380770  0.23931113    -0.56900
C578        C  0.42730324  0.63513969  0.30916125     0.75730
O579        O  0.40018675  0.64906537  0.19165828    -0.58060
C580        C  0.43329273  0.53506002  0.20446729     0.75700
C581        C  0.32357403  0.58421240  0.24616920     0.78090
Cd582      Cd  0.40247869  0.59862918  0.23945845     1.37470
O583        O  0.43735369  0.60285776  0.30223472    -0.56900
O584        O  0.34691190  0.56469659  0.26415716    -0.55710
C585        C  0.43538651  0.65331840  0.19070241     0.78050
O586        O  0.33709624  0.61020356  0.22625031    -0.58080
O587        O  0.40258719  0.64817016  0.28713079    -0.56530
O588        O  0.40954215  0.55443522  0.18700241    -0.56520
O589        O  0.45467892  0.62944225  0.20757284    -0.55700
O590        O  0.92966559  0.80949501  0.32324402    -0.56900
C591        C  0.93030977  0.88220821  0.22556697     0.75730
O592        O  0.92194818  0.75955444  0.21710273    -0.58060
C593        C  0.92922149  0.77501656  0.32287590     0.75700
C594        C  0.82414217  0.81619151  0.25146952     0.78090
Cd595      Cd  0.90424081  0.81400603  0.25457182     1.37460
O596        O  0.94111705  0.87081342  0.25878450    -0.56900
O597        O  0.84173089  0.83148483  0.27906378    -0.55710
C598        C  0.95390787  0.77210905  0.20773060     0.78050
O599        O  0.84361705  0.80008243  0.22566885    -0.58080
O600        O  0.90458955  0.86445630  0.20891083    -0.56530
O601        O  0.91421536  0.76010590  0.29366846    -0.56520
O602        O  0.95914762  0.80551374  0.21320970    -0.55700
O603        O  0.54519351  0.86809858  0.24020505    -0.56900
C604        C  0.55495884  0.77434612  0.30393094     0.75730
O605        O  0.56718242  0.75671128  0.19948943    -0.58060
C606        C  0.55669194  0.88011106  0.20722410     0.75700
C607        C  0.66293852  0.81663072  0.23984674     0.78090
Cd608      Cd  0.58290331  0.81253958  0.23599916     1.37470
O609        O  0.55317609  0.80873831  0.30297104    -0.56900
O610        O  0.64229687  0.83159878  0.26546379    -0.55710
C611        C  0.53616656  0.76892547  0.18768905     0.78050
O612        O  0.64654640  0.80062059  0.21192097    -0.58080
O613        O  0.57202915  0.75918947  0.27590849    -0.56530
O614        O  0.58317377  0.86323561  0.19050989    -0.56520
O615        O  0.53115888  0.80252781  0.19137376    -0.55700
O616        O  0.04799070  0.68941275  0.36395984    -0.56900
C617        C  0.03488911  0.75551719  0.45062036     0.75730
O618        O  0.95180915  0.71889575  0.34720256    -0.58060
C619        C  0.03752865  0.65737178  0.35664919     0.75700
C620        C  0.94980160  0.65871767  0.45475863     0.78090
Cd621      Cd  0.99187388  0.70629631  0.40412241     1.37460
O622        O  0.04503872  0.74651034  0.41630918    -0.56900
O623        O  0.98314999  0.66754070  0.46265106    -0.55710
C624        C  0.94759942  0.75246411  0.35262745     0.78050
O625        O  0.93493423  0.67438580  0.42578030    -0.58080
O626        O  0.00606596  0.73994589  0.46471332    -0.56530
O627        O  0.00741349  0.64715592  0.37289898    -0.56520
O628        O  0.96195015  0.76522824  0.38335773    -0.55700
C629        C  0.76323033  0.84971160  0.25052878    -0.00940
C630        C  0.78286219  0.81662744  0.24943744     0.08750
C631        C  0.76298289  0.78372432  0.24557028    -0.01050
C632        C  0.72378672  0.78386204  0.24233081    -0.01050
C633        C  0.70414682  0.81690730  0.24296575     0.08880
C634        C  0.72393122  0.84984425  0.24733166    -0.01250
Br635      Br  0.69748484  0.89535123  0.24687202     0.00200
Br636      Br  0.79019880  0.89506841  0.25423142     0.00130
Br637      Br  0.69688696  0.73840059  0.23930913     0.00170
Br638      Br  0.78919809  0.73809006  0.24691002     0.00190
C639        C  0.44397945  0.71967116  0.19448538    -0.00940
C640        C  0.45354176  0.68673252  0.17615387     0.08750
C641        C  0.48657118  0.68459569  0.15335976    -0.01050
C642        C  0.51234328  0.71360700  0.15313350    -0.01050
C643        C  0.50524973  0.74454090  0.17613687     0.08880
C644        C  0.46994218  0.74838754  0.19500180    -0.01250
Br645      Br  0.45870858  0.79005798  0.22755168     0.00200
Br646      Br  0.39793599  0.72375904  0.22462171     0.00130
Br647      Br  0.55798804  0.71047175  0.12273376     0.00170
Br648      Br  0.49715836  0.64103314  0.12426015     0.00190
C649        C  0.04457899  0.72224323  0.21768883    -0.00940
C650        C  0.03608917  0.69028227  0.19692008     0.08750
C651        C  0.00473064  0.68916096  0.17224595    -0.01050
C652        C  0.97938954  0.71821649  0.17201800    -0.01050
C653        C  0.98519976  0.74808472  0.19694352     0.08880
C654        C  0.01896602  0.75093269  0.21821474    -0.01250
Br655      Br  0.02801447  0.79086505  0.25387889     0.00200
Br656      Br  0.08818389  0.72475837  0.25095011     0.00130
Br657      Br  0.93594358  0.71649709  0.13899699     0.00170
Br658      Br  0.99569507  0.64688088  0.14050985     0.00190
C659        C  0.26085637  0.58440604  0.21431109    -0.00940
C660        C  0.28253779  0.57780432  0.24801210     0.08750
C661        C  0.26437568  0.56751257  0.28347044    -0.01050
C662        C  0.22493257  0.56795361  0.28622961    -0.01050
C663        C  0.20354537  0.57869429  0.25360166     0.08880
C664        C  0.22162889  0.58487841  0.21710497    -0.01250
Br665      Br  0.19278423  0.59278013  0.17006127     0.00200
Br666      Br  0.28451672  0.59153876  0.16347103     0.00130
Br667      Br  0.20078830  0.55585889  0.33555119     0.00170
Br668      Br  0.29292263  0.55476537  0.32928101     0.00190
C669        C  0.22369161  0.80783859  0.50043247    -0.00940
C670        C  0.20455468  0.83911240  0.51306019     0.08750
C671        C  0.22493598  0.87001578  0.02459491    -0.01050
C672        C  0.26420121  0.87030958  0.02191857    -0.01050
C673        C  0.28334741  0.83970216  0.50765296     0.08880
C674        C  0.26313125  0.80812084  0.49775106    -0.01250
Br675      Br  0.28925612  0.76621113  0.47800049     0.00200
Br676      Br  0.19580006  0.76559616  0.48429592     0.00130
Br677      Br  0.29193710  0.91253894  0.03850948     0.00170
Br678      Br  0.19889959  0.91192156  0.04458148     0.00190
C679        C  0.52847124  0.95202626  0.41147074    -0.00940
C680        C  0.51473274  0.98740503  0.41765322     0.08750
C681        C  0.47576924  0.99335329  0.41523374    -0.01050
C682        C  0.45068968  0.96381911  0.41698083    -0.01050
C683        C  0.46484036  0.92821499  0.41911282     0.08880
C684        C  0.50329614  0.92251501  0.41144343    -0.01250
Br685      Br  0.52168988  0.87390592  0.40339143     0.00200
Br686      Br  0.58148500  0.94277625  0.40742244     0.00130
Br687      Br  0.39769599  0.97315440  0.42147404     0.00170
Br688      Br  0.45669868  0.54220251  0.41212728     0.00190
C689        C  0.03811069  0.96789101  0.45644670    -0.00940
C690        C  0.02685093  0.93321637  0.44364861     0.08750
C691        C  0.99170207  0.92867865  0.42585264    -0.01050
C692        C  0.96598939  0.95743557  0.42556980    -0.01050
C693        C  0.97533608  0.99070633  0.44332946     0.08880
C694        C  0.01236923  0.99656398  0.45659077    -0.01250
Br695      Br  0.02696994  0.54166514  0.98132646     0.00200
Br696      Br  0.08669595  0.97509670  0.98001214     0.00130
Br697      Br  0.91732127  0.95068464  0.40264174     0.00170
Br698      Br  0.97812234  0.88227992  0.40400302     0.00190
C699        C  0.72355876  0.57449559  0.46122445    -0.00940
C700        C  0.70120689  0.57649794  0.49554136     0.08750
C701        C  0.71858177  0.58139652  0.03227858    -0.01050
C702        C  0.75795440  0.58101882  0.03497010    -0.01050
C703        C  0.78025547  0.57585692  0.50087888     0.08880
C704        C  0.76281286  0.57435997  0.46383369    -0.01250
Br705      Br  0.79240996  0.57432452  0.41594424     0.00200
Br706      Br  0.70062254  0.57387964  0.41003944     0.00130
Br707      Br  0.78057462  0.58586510  0.08602133     0.00170
Br708      Br  0.68886200  0.58672139  0.07965051     0.00190
O709        O  0.93140387  0.55972857  0.57129418    -0.56900
C710        C  0.93071869  0.62892487  0.97528037     0.75730
O711        O  0.91566164  0.50424417  0.97230566    -0.58060
C712        C  0.92694415  0.52564896  0.57440284     0.75700
C713        C  0.82142292  0.57095975  0.00348847     0.78090
Cd714      Cd  0.90131251  0.56214677  0.50503219     1.37460
O715        O  0.94231689  0.61627223  0.00764626    -0.56900
O716        O  0.84142862  0.58842058  0.52749151    -0.55710
C717        C  0.94553563  0.51579595  0.95628391     0.78050
O718        O  0.83851353  0.54885485  0.98140710    -0.58080
O719        O  0.90372481  0.61252561  0.95919361    -0.56530
O720        O  0.90736167  0.51046381  0.54856330    -0.56520
O721        O  0.95050876  0.54963644  0.95657270    -0.55700
O722        O  0.54096772  0.61741080  0.98854288    -0.56900
C723        C  0.55847632  0.52406031  0.55601541     0.75730
O724        O  0.57341263  0.51859332  0.93159479    -0.58060
C725        C  0.55184065  0.62872379  0.95514011     0.75700
C726        C  0.66000889  0.57215735  0.99278964     0.78090
Cd727      Cd  0.58049231  0.56280987  0.98665545     1.37460
O728        O  0.55382249  0.55811904  0.55414594    -0.56900
O729        O  0.63745835  0.59160109  0.01232347    -0.55710
C730        C  0.53833637  0.51532439  0.93693060     0.78050
O731        O  0.64553717  0.54844766  0.97066416    -0.58080
O732        O  0.57667062  0.50950009  0.52831975    -0.56530
O733        O  0.57784051  0.61136134  0.93832347    -0.56520
O734        O  0.52401938  0.53556919  0.96278081    -0.55700
O735        O  0.44059531  0.99411119  0.65127001    -0.56900
C736        C  0.44882230  0.90939442  0.58849204     0.75730
O737        O  0.53997016  0.96742170  0.58346452    -0.58060
C738        C  0.45220322  0.50554089  0.68396141     0.75700
C739        C  0.53759898  0.90941268  0.68669601     0.78090
Cd740      Cd  0.49490394  0.95609676  0.63734179     1.37460
O741        O  0.44599182  0.94347823  0.58834182    -0.56900
O742        O  0.50485211  0.91904699  0.69645519    -0.55710
C743        C  0.54059193  0.50153239  0.58637734     0.78050
O744        O  0.55156406  0.92357970  0.65595426    -0.58080
O745        O  0.47103184  0.89614984  0.61317597    -0.56530
O746        O  0.48219709  0.49200758  0.69670780    -0.56520
O747        O  0.52248761  0.51491802  0.61476218    -0.55700
O748        O  0.05033727  0.85360089  0.57142338    -0.56900
C749        C  0.05394582  0.78477157  0.97151350     0.75730
O750        O  0.08196151  0.89803733  0.95683435    -0.58060
C751        C  0.05765380  0.88707155  0.57563243     0.75700
C752        C  0.16340184  0.84115787  0.01106113     0.78090
Cd753      Cd  0.08355085  0.84920936  0.50647637     1.37470
O754        O  0.04673450  0.79213315  0.00712456    -0.56900
O755        O  0.14191694  0.82198569  0.53259175    -0.55710
C756        C  0.04670914  0.90134497  0.95893802     0.78050
O757        O  0.14799765  0.86315562  0.98783825    -0.58080
O758        O  0.07675084  0.80543333  0.95362053    -0.56530
O759        O  0.08023352  0.90100890  0.55110263    -0.56520
O760        O  0.02905499  0.87786267  0.97892260    -0.55700
O761        O  0.43565804  0.85343789  0.55515158    -0.56900
C762        C  0.43131557  0.78431500  0.95591817     0.75730
O763        O  0.33840057  0.86453877  0.97750451    -0.58060
C764        C  0.42978656  0.88715936  0.55897130     0.75700
C765        C  0.44291298  0.89919890  0.93916563     0.78090
Cd766      Cd  0.40374507  0.84970496  0.99041886     1.37470
O767        O  0.44125363  0.79367645  0.99005365    -0.56900
O768        O  0.45890999  0.87834404  0.96306965    -0.55710
C769        C  0.32422713  0.84186078  0.00140567     0.78050
O770        O  0.40771683  0.89548417  0.93642203    -0.58080
O771        O  0.40661869  0.80335766  0.93955190    -0.56530
O772        O  0.40889479  0.90181961  0.53388742    -0.56520
O773        O  0.34675538  0.82202869  0.02012618    -0.55700
O774        O  0.94603726  0.96939943  0.60165796    -0.56900
C775        C  0.94941711  0.91169759  0.70455107     0.75730
O776        O  0.04313863  0.94384105  0.60538524    -0.58060
C777        C  0.94609826  0.50356605  0.60388963     0.75700
C778        C  0.03479547  0.50763540  0.69968285     0.78090
Cd779      Cd  0.99236820  0.95795823  0.65340128     1.37470
O780        O  0.93559083  0.92535673  0.67383854    -0.56900
O781        O  0.00645711  0.49146127  0.71399298    -0.55710
C782        C  0.03841672  0.90990888  0.60483288     0.78050
O783        O  0.04496619  0.99882111  0.66535016    -0.58080
O784        O  0.98210786  0.92183909  0.71363326    -0.56530
O785        O  0.96565153  0.51720118  0.63074464    -0.56520
O786        O  0.01414783  0.89744192  0.62843056    -0.55700
O787        O  0.54768072  0.67320879  0.90478674    -0.56900
C788        C  0.53606433  0.75208935  0.83398971     0.75730
O789        O  0.43869463  0.69126894  0.84168632    -0.58060
C790        C  0.53312905  0.65835352  0.93484274     0.75700
C791        C  0.44960070  0.75481866  0.93463943     0.78090
Cd792      Cd  0.49131101  0.70611947  0.88604724     1.37600
O793        O  0.53435557  0.71806915  0.83057618    -0.56900
O794        O  0.48033269  0.74171238  0.94597307    -0.55710
C795        C  0.44593954  0.65791574  0.83842348     0.78050
O796        O  0.43685991  0.74330136  0.90241216    -0.58080
O797        O  0.51890778  0.76545862  0.86301181    -0.56530
O798        O  0.50036565  0.66802903  0.94441775    -0.56520
O799        O  0.47226218  0.64613965  0.85913861    -0.55700
O800        O  0.04469546  0.60391107  0.81749692    -0.56900
C801        C  0.05339809  0.53710762  0.72050939     0.75730
O802        O  0.08843562  0.65257398  0.71229035    -0.58060
C803        C  0.05712289  0.63467526  0.82764857     0.75700
C804        C  0.16285870  0.58577319  0.75727931     0.78090
Cd805      Cd  0.08402565  0.60013708  0.75691003     1.37470
O806        O  0.04745465  0.54318135  0.75664577    -0.56900
O807        O  0.14049304  0.56557285  0.77659421    -0.55710
C808        C  0.05335111  0.65638247  0.71013912     0.78050
O809        O  0.14862129  0.61282432  0.74037189    -0.58080
O810        O  0.07467010  0.55900879  0.70225419    -0.56530
O811        O  0.08531905  0.64648481  0.80891697    -0.56520
O812        O  0.03321996  0.63145659  0.72475120    -0.55700
O813        O  0.44146827  0.54380768  0.73931114    -0.56900
C814        C  0.42730324  0.63513968  0.80916127     0.75730
O815        O  0.40018675  0.64906536  0.69165829    -0.58060
C816        C  0.43329271  0.53506002  0.70446730     0.75700
C817        C  0.32357402  0.58421242  0.74616918     0.78090
Cd818      Cd  0.40247869  0.59862918  0.73945847     1.37470
O819        O  0.43735369  0.60285775  0.80223473    -0.56900
O820        O  0.34691188  0.56469659  0.76415714    -0.55710
C821        C  0.43538651  0.65331840  0.69070242     0.78050
O822        O  0.33709624  0.61020359  0.72625033    -0.58080
O823        O  0.40258718  0.64817015  0.78713081    -0.56530
O824        O  0.40954215  0.55443523  0.68700241    -0.56520
O825        O  0.45467892  0.62944224  0.70757287    -0.55700
O826        O  0.92966560  0.80949503  0.82324401    -0.56900
C827        C  0.93030977  0.88220824  0.72556696     0.75730
O828        O  0.92194819  0.75955448  0.71710270    -0.58060
C829        C  0.92922149  0.77501659  0.82287589     0.75700
C830        C  0.82414217  0.81619154  0.75146951     0.78090
Cd831      Cd  0.90424081  0.81400607  0.75457182     1.37460
O832        O  0.94111703  0.87081346  0.75878449    -0.56900
O833        O  0.84173089  0.83148487  0.77906377    -0.55710
C834        C  0.95390788  0.77210909  0.70773060     0.78050
O835        O  0.84361705  0.80008246  0.72566885    -0.58080
O836        O  0.90458955  0.86445632  0.70891081    -0.56530
O837        O  0.91421534  0.76010593  0.79366846    -0.56520
O838        O  0.95914763  0.80551378  0.71320972    -0.55700
O839        O  0.54519352  0.86809858  0.74020506    -0.56900
C840        C  0.55495884  0.77434612  0.80393095     0.75730
O841        O  0.56718243  0.75671127  0.69948944    -0.58060
C842        C  0.55669195  0.88011105  0.70722410     0.75700
C843        C  0.66293853  0.81663072  0.73984674     0.78090
Cd844      Cd  0.58290332  0.81253957  0.73599918     1.37470
O845        O  0.55317610  0.80873831  0.80297105    -0.56900
O846        O  0.64229688  0.83159878  0.76546380    -0.55710
C847        C  0.53616657  0.76892546  0.68768906     0.78050
O848        O  0.64654641  0.80062058  0.71192098    -0.58080
O849        O  0.57202915  0.75918947  0.77590849    -0.56530
O850        O  0.58317377  0.86323559  0.69050990    -0.56520
O851        O  0.53115888  0.80252781  0.69137378    -0.55700
O852        O  0.04799071  0.68941274  0.86395983    -0.56900
C853        C  0.03488911  0.75551719  0.95062035     0.75730
O854        O  0.95180911  0.71889576  0.84720256    -0.58060
C855        C  0.03752862  0.65737179  0.85664914     0.75700
C856        C  0.94980161  0.65871767  0.95475862     0.78090
Cd857      Cd  0.99187387  0.70629632  0.90412238     1.37460
O858        O  0.04503872  0.74651033  0.91630917    -0.56900
O859        O  0.98315002  0.66754069  0.96265102    -0.55710
C860        C  0.94759941  0.75246414  0.85262743     0.78050
O861        O  0.93493423  0.67438582  0.92578031    -0.58080
O862        O  0.00606595  0.73994589  0.96471330    -0.56530
O863        O  0.00741344  0.64715595  0.87289889    -0.56520
O864        O  0.96195018  0.76522827  0.88335770    -0.55700
C865        C  0.76323033  0.84971162  0.75052876    -0.00940
C866        C  0.78286220  0.81662746  0.74943744     0.08750
C867        C  0.76298290  0.78372434  0.74557030    -0.01050
C868        C  0.72378672  0.78386204  0.74233083    -0.01050
C869        C  0.70414682  0.81690731  0.74296576     0.08880
C870        C  0.72393122  0.84984426  0.74733164    -0.01250
Br871      Br  0.69748483  0.89535124  0.74687197     0.00200
Br872      Br  0.79019879  0.89506844  0.75423136     0.00130
Br873      Br  0.69688697  0.73840059  0.73930919     0.00170
Br874      Br  0.78919810  0.73809008  0.74691007     0.00190
C875        C  0.44397945  0.71967115  0.69448540    -0.00940
C876        C  0.45354176  0.68673251  0.67615389     0.08750
C877        C  0.48657118  0.68459569  0.65335978    -0.01050
C878        C  0.51234328  0.71360699  0.65313352    -0.01050
C879        C  0.50524974  0.74454089  0.67613688     0.08880
C880        C  0.46994219  0.74838753  0.69500183    -0.01250
Br881      Br  0.45870859  0.79005796  0.72755171     0.00200
Br882      Br  0.39793600  0.72375903  0.72462174     0.00130
Br883      Br  0.55798804  0.71047174  0.62273377     0.00170
Br884      Br  0.49715835  0.64103314  0.62426016     0.00190
C885        C  0.04457899  0.72224326  0.71768882    -0.00940
C886        C  0.03608918  0.69028232  0.69692003     0.08750
C887        C  0.00473067  0.68916103  0.67224588    -0.01050
C888        C  0.97938957  0.71821656  0.67201795    -0.01050
C889        C  0.98519978  0.74808477  0.69694351     0.08880
C890        C  0.01896602  0.75093272  0.71821475    -0.01250
Br891      Br  0.02801444  0.79086504  0.75387897     0.00200
Br892      Br  0.08818388  0.72475837  0.75095012     0.00130
Br893      Br  0.93594363  0.71649720  0.63899691     0.00170
Br894      Br  0.99569512  0.64688099  0.64050972     0.00190
C895        C  0.26085637  0.58440611  0.71431106    -0.00940
C896        C  0.28253777  0.57780435  0.74801207     0.08750
C897        C  0.26437565  0.56751257  0.78347039    -0.01050
C898        C  0.22493254  0.56795361  0.78622955    -0.01050
C899        C  0.20354535  0.57869433  0.75360160     0.08880
C900        C  0.22162889  0.58487849  0.71710493    -0.01250
Br901      Br  0.19278424  0.59278026  0.67006123     0.00200
Br902      Br  0.28451673  0.59153889  0.66347102     0.00130
Br903      Br  0.20078826  0.55585884  0.83555111     0.00170
Br904      Br  0.29292259  0.55476531  0.82928095     0.00190
C905        C  0.22369160  0.80783858  0.00043248    -0.00940
C906        C  0.20455468  0.83911239  0.01306020     0.08750
C907        C  0.22493599  0.87001579  0.52459491    -0.01050
C908        C  0.26420122  0.87030958  0.52191857    -0.01050
C909        C  0.28334741  0.83970215  0.00765296     0.08880
C910        C  0.26313125  0.80812083  0.99775106    -0.01250
Br911      Br  0.28925612  0.76621113  0.97800050     0.00200
Br912      Br  0.19580005  0.76559615  0.98429593     0.00130
Br913      Br  0.29193711  0.91253895  0.53850949     0.00170
Br914      Br  0.19889960  0.91192157  0.54458147     0.00190
C915        C  0.52847123  0.95202627  0.91147075    -0.00940
C916        C  0.51473273  0.98740504  0.91765323     0.08750
C917        C  0.47576923  0.99335330  0.91523375    -0.01050
C918        C  0.45068967  0.96381912  0.91698084    -0.01050
C919        C  0.46484035  0.92821500  0.91911283     0.08880
C920        C  0.50329613  0.92251502  0.91144343    -0.01250
Br921      Br  0.52168987  0.87390593  0.90339143     0.00200
Br922      Br  0.58148499  0.94277626  0.90742244     0.00130
Br923      Br  0.39769598  0.97315441  0.92147405     0.00170
Br924      Br  0.45669872  0.54220252  0.91212728     0.00190
C925        C  0.03811067  0.96789098  0.95644668    -0.00940
C926        C  0.02685091  0.93321634  0.94364861     0.08750
C927        C  0.99170204  0.92867861  0.92585266    -0.01050
C928        C  0.96598936  0.95743553  0.92556982    -0.01050
C929        C  0.97533606  0.99070630  0.94332946     0.08880
C930        C  0.01236921  0.99656395  0.95659074    -0.01250
Br931      Br  0.02696993  0.54166514  0.48132649     0.00200
Br932      Br  0.08669596  0.97509671  0.48001218     0.00130
Br933      Br  0.91732123  0.95068459  0.90264178     0.00170
Br934      Br  0.97812230  0.88227987  0.90400306     0.00190
C935        C  0.72355879  0.57449560  0.96122445    -0.00940
C936        C  0.70120691  0.57649796  0.99554136     0.08750
C937        C  0.71858174  0.58139648  0.53227858    -0.01050
C938        C  0.75795437  0.58101878  0.53497011    -0.01050
C939        C  0.78025550  0.57585694  0.00087888     0.08880
C940        C  0.76281288  0.57435998  0.96383370    -0.01250
Br941      Br  0.79240998  0.57432451  0.91594424     0.00200
Br942      Br  0.70062257  0.57387963  0.91003944     0.00130
Br943      Br  0.78057460  0.58586504  0.58602133     0.00170
Br944      Br  0.68886197  0.58672133  0.57965052     0.00190
loop_ 
_geom_bond_atom_site_label_1 
_geom_bond_atom_site_label_2 
_geom_bond_distance 
_geom_bond_site_symmetry_2 
_ccdc_geom_bond_type 
O1            C4   1.271       .  A
O1           Cd6   2.512       .  S
C2           O11   1.266       .  A
C2            O7   1.271       .  A
C2          C148   1.463       .  S
O3            C9   1.265       .  A
O3         Cd242   2.466       .  S
C4           O12   1.261       .  A
C4           C69   1.469       .  S
C5           O10   1.266       .  A
C5          O244   1.267       .  A
C5          C231   1.487       .  S
Cd6          O12   2.425       .  S
Cd6           O8   2.469       .  S
Cd6         O239   2.466   1_554  S
Cd6         O249   2.446   1_554  S
Cd6         O247   2.426   1_554  S
Cd6         O243   2.473       .  S
Cd6         O246   2.439   1_554  S
O7         Cd242   2.473       .  S
O8          C241   1.267       .  A
C9           O13   1.260       .  A
C9          C693   1.480   1_545  S
O10        Cd242   2.439       .  S
O11        Cd242   2.426       .  S
O13        Cd242   2.446       .  S
O14          C17   1.268       .  A
O14         Cd19   2.468       .  S
C15          O24   1.263       .  A
C15          O20   1.270       .  A
C15          C35   1.465       .  S
O16          C22   1.270       .  A
O16         Cd19   2.503       .  S
C17          O25   1.265       .  A
C17          C82   1.461       .  S
C18          O23   1.268       .  A
C18          O21   1.267       .  A
C18         C228   1.484       .  S
Cd19         O26   2.400       .  S
Cd19         O25   2.434       .  S
Cd19         O23   2.443       .  S
Cd19         O21   2.460       .  S
Cd19        O260   2.426       .  S
Cd19        O256   2.485       .  S
O20        Cd255   2.485   1_554  S
C22          O26   1.262       .  A
C22         C680   1.486   1_545  S
O24        Cd255   2.426   1_554  S
O27         C502   1.265       .  A
O27         Cd32   2.444       .  S
C28          O37   1.262       .  A
C28          O33   1.262       .  A
C28          C56   1.469       .  S
O29         C507   1.263       .  A
O29         Cd32   2.463       .  S
C30          O38   1.265   1_545  A
C30         O499   1.265   1_545  A
C30         C108   1.461       .  S
C31          O36   1.266       .  A
C31          O34   1.266       .  A
C31         C134   1.462       .  S
Cd32         O37   2.510       .  S
Cd32         O33   2.472       .  S
Cd32         O36   2.448       .  S
Cd32         O34   2.462       .  S
Cd32        O511   2.496       .  S
Cd32        O510   2.460       .  S
C35          O39   1.261       .  A
C35         O501   1.263   1_545  A
O38        Cd504   2.460       .  S
O39        Cd504   2.496   1_545  S
O40          C43   1.270       .  A
O40         Cd45   2.506       .  S
C41          O50   1.264       .  A
C41          O46   1.268       .  A
C41         C145   1.463       .  S
O42          C48   1.268       .  A
O42        Cd281   2.470       .  S
C43          O51   1.262       .  A
C43          C74   1.473       .  S
C44          O49   1.264       .  A
C44         O283   1.268       .  A
C44         C198   1.475       .  S
Cd45         O51   2.448       .  S
Cd45         O47   2.492       .  S
Cd45        O278   2.470   1_554  S
Cd45        O288   2.418   1_554  S
Cd45        O286   2.435   1_554  S
Cd45        O282   2.477       .  S
Cd45        O285   2.435   1_554  S
O46        Cd281   2.477       .  S
O47         C280   1.268       .  A
C48          O52   1.263       .  A
C48         C218   1.474       .  S
O49        Cd281   2.435       .  S
O50        Cd281   2.435       .  S
O52        Cd281   2.418       .  S
O53          C56   1.270       .  A
O53        Cd294   2.497   1_554  S
C54          O63   1.264       .  A
C54          O59   1.268       .  A
C54          C83   1.462       .  S
O55          C61   1.266       .  A
O55         Cd58   2.445       .  S
C56          O64   1.263       .  A
C57          O62   1.269       .  A
C57          O60   1.263       .  A
C57         C211   1.484       .  S
Cd58         O65   2.479       .  S
Cd58         O63   2.439       .  S
Cd58         O59   2.470       .  S
Cd58         O62   2.497       .  S
Cd58         O60   2.410       .  S
Cd58        O289   2.497       .  S
Cd58        O300   2.437       .  S
C61          O65   1.267       .  A
C61         C201   1.476       .  S
O64        Cd294   2.437   1_554  S
O66         C541   1.263       .  A
O66         Cd71   2.468       .  S
C67          O76   1.266       .  A
C67          O72   1.267       .  A
C67         C119   1.463       .  S
O68          C74   1.263       .  A
O68         Cd71   2.489   1_455  S
C69          O77   1.261       .  A
C69         O538   1.263   1_545  A
C70          O73   1.265   1_545  A
C70         O547   1.265   1_545  A
C70          C93   1.461       .  S
Cd71         O78   2.516   1_655  S
Cd71         O76   2.468       .  S
Cd71         O72   2.447       .  S
Cd71         O75   2.441   1_655  S
Cd71        O549   2.513       .  S
Cd71        O545   2.464   1_655  S
O73        Cd543   2.464   1_455  S
C74          O78   1.261       .  A
O75         C542   1.265       .  A
O77        Cd543   2.513   1_545  S
O79          C82   1.266       .  A
O79         Cd84   2.448       .  S
C80          O89   1.261       .  A
C80          O85   1.262       .  A
C80         C132   1.468       .  S
O81          C87   1.264       .  A
O81         Cd84   2.484       .  S
C82          O90   1.266       .  A
C83          O88   1.266       .  A
C83          O86   1.266       .  A
Cd84         O91   2.491       .  S
Cd84         O90   2.458       .  S
Cd84         O89   2.517       .  S
Cd84         O85   2.462       .  S
Cd84         O88   2.448       .  S
Cd84         O86   2.459       .  S
C87          O91   1.260       .  A
C87         C106   1.468       .  S
O92          C95   1.267       .  A
O92         Cd97   2.490       .  S
C93         O102   1.265       .  A
C93          O98   1.268       .  A
O94         C100   1.265       .  A
O94         Cd97   2.461       .  S
C95         O103   1.262       .  A
C95         C147   1.471       .  S
C96         O101   1.263       .  A
C96          O99   1.268       .  A
C96         C191   1.483       .  S
Cd97        O104   2.427       .  S
Cd97        O103   2.466       .  S
Cd97        O102   2.429       .  S
Cd97         O98   2.469       .  S
Cd97        O101   2.414       .  S
Cd97         O99   2.490       .  S
C100        O104   1.263       .  A
C100        C178   1.470       .  S
O105        C108   1.267       .  A
O105       Cd110   2.463       .  S
C106        O115   1.261       .  A
C106        O111   1.268       .  A
O107        C113   1.267       .  A
O107       Cd110   2.473       .  S
C108        O116   1.265       .  A
C109        O114   1.265       .  A
C109        O112   1.267       .  A
C109        C188   1.485       .  S
Cd110       O117   2.425       .  S
Cd110       O116   2.434       .  S
Cd110       O115   2.448       .  S
Cd110       O111   2.491       .  S
Cd110       O114   2.424       .  S
Cd110       O112   2.480       .  S
C113        O117   1.263       .  A
C113        C168   1.473       .  S
O118        C121   1.272       .  A
O118       Cd123   2.524       .  S
C119        O128   1.266       .  A
C119        O124   1.271       .  A
O120        C126   1.268       .  A
O120       Cd123   2.465       .  S
C121        O129   1.261       .  A
C121        C152   1.472       .  S
C122        O127   1.267       .  A
C122        O125   1.268       .  A
C122        C158   1.478       .  S
Cd123       O130   2.426       .  S
Cd123       O129   2.421       .  S
Cd123       O128   2.423       .  S
Cd123       O124   2.475       .  S
Cd123       O127   2.441       .  S
Cd123       O125   2.466       .  S
C126        O130   1.260       .  A
C126        C181   1.475       .  S
O131        C134   1.271       .  A
O131       Cd136   2.463       .  S
C132        O141   1.261       .  A
C132        O137   1.271       .  A
O133        C139   1.268       .  A
O133       Cd136   2.474       .  S
C134        O142   1.267       .  A
C135        O140   1.268       .  A
C135        O138   1.267       .  A
C135        C161   1.477       .  S
Cd136       O143   2.433       .  S
Cd136       O142   2.427       .  S
Cd136       O141   2.417       .  S
Cd136       O137   2.510       .  S
Cd136       O140   2.452       .  S
Cd136       O138   2.457       .  S
C139        O143   1.260       .  A
C139        C171   1.478       .  S
O144        C147   1.264       .  A
O144       Cd149   2.499   1_455  S
C145        O154   1.266       .  A
C145        O150   1.266       .  A
O146        C152   1.262       .  A
O146       Cd149   2.467       .  S
C147        O155   1.261       .  A
C148        O153   1.266       .  A
C148        O151   1.265       .  A
Cd149       O156   2.531       .  S
Cd149       O155   2.493   1_655  S
Cd149       O154   2.467   1_655  S
Cd149       O150   2.444   1_655  S
Cd149       O153   2.452       .  S
Cd149       O151   2.467       .  S
C152        O156   1.262       .  A
C157        C158   1.412       .  A
C157        C162   1.410       .  A
C157       Br164   1.932       .  S
C158        C159   1.410       .  A
C159        C160   1.406       .  A
C159       Br166   1.932       .  S
C160        C161   1.410       .  A
C160       Br165   1.932       .  S
C161        C162   1.412       .  A
C162       Br163   1.932       .  S
C167        C168   1.410       .  A
C167        C172   1.405       .  A
C167       Br174   1.937       .  S
C168        C169   1.409       .  A
C169        C170   1.408       .  A
C169       Br176   1.928       .  S
C170        C171   1.409       .  A
C170       Br175   1.927       .  S
C171        C172   1.418       .  A
C172       Br173   1.939       .  S
C177        C178   1.410       .  A
C177        C182   1.403       .  A
C177       Br184   1.938       .  S
C178        C179   1.408       .  A
C179        C180   1.407   1_455  A
C179       Br186   1.928   1_455  S
C180        C181   1.409       .  A
C180       Br185   1.927       .  S
C181        C182   1.417   1_655  A
C182       Br183   1.940       .  S
C187        C188   1.413       .  A
C187        C192   1.404       .  A
C187       Br194   1.936       .  S
C188        C189   1.416       .  A
C189        C190   1.412       .  A
C189       Br196   1.932       .  S
C190        C191   1.413       .  A
C190       Br195   1.931       .  S
C191        C192   1.413       .  A
C192       Br193   1.937       .  S
C197        C198   1.410       .  A
C197        C202   1.411       .  A
C197       Br204   1.930       .  S
C198        C435   1.409       .  A
C199        C200   1.405       .  A
C199        C434   1.409       .  A
C199       Br206   1.931       .  S
C200        C437   1.409       .  A
C200       Br205   1.931       .  S
C201        C202   1.411       .  A
C201        C436   1.409       .  A
C202       Br203   1.930       .  S
C207        C208   1.413       .  A
C207        C212   1.409       .  A
C207       Br214   1.930       .  S
C208        C494   1.486       .  S
C208        C209   1.414       .  A
C209        C210   1.408       .  A
C209       Br688   1.934       .  S
C210        C211   1.412       .  A
C210       Br215   1.931       .  S
C211        C212   1.413       .  A
C212       Br213   1.933       .  S
Br216       C681   1.934   1_545  S
C217        C218   1.410       .  A
C217        C222   1.406       .  A
C217       Br460   1.938       .  S
C218        C219   1.410   1_455  A
C219        C220   1.408       .  A
C219       Br226   1.930       .  S
C220        C221   1.410       .  A
C220       Br225   1.929       .  S
C221        C481   1.480       .  S
C221        C222   1.418   1_655  A
C222       Br931   1.938       .  S
Br223       C930   1.938   1_545  S
Br224       C453   1.938       .  S
C227        C228   1.411       .  A
C227        C232   1.407       .  A
C227       Br234   1.935       .  S
C228        C465   1.414       .  A
C229        C230   1.411       .  A
C229        C464   1.414   1_554  A
C229       Br236   1.934       .  S
C230        C467   1.416       .  A
C230       Br235   1.934       .  S
C231        C232   1.414       .  A
C231        C466   1.416       .  A
C232       Br233   1.935       .  S
O237        C240   1.271       .  A
O237       Cd242   2.512       .  S
C238        O247   1.266       .  A
C238        O243   1.271   1_556  A
C238        C384   1.463       .  S
O239        C245   1.265       .  A
C240        O248   1.261       .  A
C240        C305   1.469       .  S
C241        O246   1.266   1_554  A
C241        C467   1.487       .  S
Cd242       O248   2.425       .  S
Cd242       O244   2.469       .  S
C245        O249   1.260       .  A
C245        C929   1.480   1_545  S
O250        C253   1.268       .  A
O250       Cd255   2.468       .  S
C251        O260   1.263       .  A
C251        O256   1.270       .  A
C251        C271   1.465       .  S
O252        C258   1.270       .  A
O252       Cd255   2.503       .  S
C253        O261   1.265       .  A
C253        C318   1.461       .  S
C254        O259   1.268       .  A
C254        O257   1.267   1_556  A
C254        C464   1.484       .  S
Cd255       O262   2.400       .  S
Cd255       O261   2.434       .  S
Cd255       O259   2.443       .  S
Cd255       O257   2.460   1_556  S
C258        O262   1.262       .  A
C258        C916   1.486   1_545  S
O263        C738   1.265       .  A
O263       Cd268   2.444       .  S
C264        O273   1.262       .  A
C264        O269   1.262       .  A
C264        C292   1.469       .  S
O265        C743   1.263       .  A
O265       Cd268   2.463       .  S
C266        O735   1.265   1_545  A
C266        O274   1.265   1_545  A
C266        C344   1.461       .  S
C267        O272   1.266       .  A
C267        O270   1.266       .  A
C267        C370   1.462       .  S
Cd268       O747   2.496       .  S
Cd268       O746   2.460       .  S
Cd268       O273   2.510       .  S
Cd268       O269   2.472       .  S
Cd268       O272   2.448       .  S
Cd268       O270   2.462       .  S
C271        O737   1.263   1_545  A
C271        O275   1.261       .  A
O274       Cd740   2.460       .  S
O275       Cd740   2.496   1_545  S
O276        C279   1.270       .  A
O276       Cd281   2.506       .  S
C277        O286   1.264       .  A
C277        O282   1.268   1_556  A
C277        C381   1.463       .  S
O278        C284   1.268       .  A
C279        O287   1.262       .  A
C279        C310   1.473       .  S
C280        O285   1.264   1_554  A
C280        C434   1.475       .  S
Cd281       O287   2.448       .  S
Cd281       O283   2.492       .  S
C284        O288   1.263       .  A
C284        C454   1.474       .  S
O289        C292   1.270       .  A
C290        O299   1.264       .  A
C290        O295   1.268       .  A
C290        C319   1.462       .  S
O291        C297   1.266   1_556  A
O291       Cd294   2.445       .  S
C292        O300   1.263       .  A
C293        O298   1.269       .  A
C293        O296   1.263       .  A
C293        C447   1.484       .  S
Cd294       O301   2.479   1_556  S
Cd294       O299   2.439       .  S
Cd294       O295   2.470       .  S
Cd294       O298   2.497       .  S
Cd294       O296   2.410       .  S
C297        O301   1.267       .  A
C297        C437   1.476       .  S
O302        C777   1.263       .  A
O302       Cd307   2.468       .  S
C303        O312   1.266       .  A
C303        O308   1.267       .  A
C303        C355   1.463       .  S
O304        C310   1.263       .  A
O304       Cd307   2.489   1_455  S
C305        O774   1.263   1_545  A
C305        O313   1.261       .  A
C306        O783   1.265   1_545  A
C306        O309   1.265   1_545  A
C306        C329   1.461       .  S
Cd307       O314   2.516   1_655  S
Cd307       O785   2.513       .  S
Cd307       O312   2.468       .  S
Cd307       O308   2.447       .  S
Cd307       O311   2.441   1_655  S
Cd307       O781   2.464   1_655  S
O309       Cd779   2.464   1_455  S
C310        O314   1.261       .  A
O311        C778   1.265       .  A
O313       Cd779   2.513   1_545  S
O315        C318   1.266       .  A
O315       Cd320   2.448       .  S
C316        O325   1.261       .  A
C316        O321   1.262       .  A
C316        C368   1.468       .  S
O317        C323   1.264       .  A
O317       Cd320   2.484       .  S
C318        O326   1.266       .  A
C319        O324   1.266       .  A
C319        O322   1.266       .  A
Cd320       O327   2.491       .  S
Cd320       O326   2.458       .  S
Cd320       O325   2.517       .  S
Cd320       O321   2.462       .  S
Cd320       O324   2.448       .  S
Cd320       O322   2.459       .  S
C323        O327   1.260       .  A
C323        C342   1.468       .  S
O328        C331   1.267       .  A
O328       Cd333   2.490       .  S
C329        O338   1.265       .  A
C329        O334   1.268       .  A
O330        C336   1.265       .  A
O330       Cd333   2.461       .  S
C331        O339   1.262       .  A
C331        C383   1.471       .  S
C332        O337   1.263       .  A
C332        O335   1.268       .  A
C332        C427   1.483       .  S
Cd333       O340   2.427       .  S
Cd333       O339   2.466       .  S
Cd333       O338   2.429       .  S
Cd333       O334   2.469       .  S
Cd333       O337   2.414       .  S
Cd333       O335   2.490       .  S
C336        O340   1.263       .  A
C336        C414   1.470       .  S
O341        C344   1.267       .  A
O341       Cd346   2.463       .  S
C342        O351   1.261       .  A
C342        O347   1.268       .  A
O343        C349   1.267       .  A
O343       Cd346   2.473       .  S
C344        O352   1.265       .  A
C345        O350   1.265       .  A
C345        O348   1.267       .  A
C345        C424   1.485       .  S
Cd346       O353   2.425       .  S
Cd346       O352   2.434       .  S
Cd346       O351   2.448       .  S
Cd346       O347   2.491       .  S
Cd346       O350   2.424       .  S
Cd346       O348   2.480       .  S
C349        O353   1.263       .  A
C349        C404   1.473       .  S
O354        C357   1.272       .  A
O354       Cd359   2.524       .  S
C355        O364   1.266       .  A
C355        O360   1.271       .  A
O356        C362   1.268       .  A
O356       Cd359   2.465       .  S
C357        O365   1.261       .  A
C357        C388   1.472       .  S
C358        O363   1.267       .  A
C358        O361   1.268       .  A
C358        C394   1.478       .  S
Cd359       O366   2.426       .  S
Cd359       O365   2.421       .  S
Cd359       O364   2.423       .  S
Cd359       O360   2.475       .  S
Cd359       O363   2.441       .  S
Cd359       O361   2.466       .  S
C362        O366   1.260       .  A
C362        C417   1.475       .  S
O367        C370   1.271       .  A
O367       Cd372   2.463       .  S
C368        O377   1.261       .  A
C368        O373   1.271       .  A
O369        C375   1.268       .  A
O369       Cd372   2.474       .  S
C370        O378   1.267       .  A
C371        O376   1.268       .  A
C371        O374   1.267       .  A
C371        C397   1.477       .  S
Cd372       O379   2.433       .  S
Cd372       O378   2.427       .  S
Cd372       O377   2.417       .  S
Cd372       O373   2.510       .  S
Cd372       O376   2.452       .  S
Cd372       O374   2.457       .  S
C375        O379   1.260       .  A
C375        C407   1.478       .  S
O380        C383   1.264       .  A
O380       Cd385   2.499   1_455  S
C381        O390   1.266       .  A
C381        O386   1.266       .  A
O382        C388   1.262       .  A
O382       Cd385   2.467       .  S
C383        O391   1.261       .  A
C384        O389   1.266       .  A
C384        O387   1.265       .  A
Cd385       O392   2.531       .  S
Cd385       O391   2.493   1_655  S
Cd385       O390   2.467   1_655  S
Cd385       O386   2.444   1_655  S
Cd385       O389   2.452       .  S
Cd385       O387   2.467       .  S
C388        O392   1.262       .  A
C393        C394   1.412       .  A
C393        C398   1.410       .  A
C393       Br400   1.932       .  S
C394        C395   1.410       .  A
C395        C396   1.406       .  A
C395       Br402   1.932       .  S
C396        C397   1.410       .  A
C396       Br401   1.932       .  S
C397        C398   1.412       .  A
C398       Br399   1.932       .  S
C403        C404   1.410       .  A
C403        C408   1.405       .  A
C403       Br410   1.937       .  S
C404        C405   1.409       .  A
C405        C406   1.408       .  A
C405       Br412   1.928       .  S
C406        C407   1.409       .  A
C406       Br411   1.927       .  S
C407        C408   1.418       .  A
C408       Br409   1.939       .  S
C413        C414   1.410       .  A
C413        C418   1.403       .  A
C413       Br420   1.938       .  S
C414        C415   1.408       .  A
C415        C416   1.407   1_455  A
C415       Br422   1.928   1_455  S
C416        C417   1.409       .  A
C416       Br421   1.927       .  S
C417        C418   1.417   1_655  A
C418       Br419   1.940       .  S
C423        C424   1.413       .  A
C423        C428   1.404       .  A
C423       Br430   1.936       .  S
C424        C425   1.416       .  A
C425        C426   1.412       .  A
C425       Br432   1.932       .  S
C426        C427   1.413       .  A
C426       Br431   1.931       .  S
C427        C428   1.413       .  A
C428       Br429   1.937       .  S
C433        C434   1.410       .  A
C433        C438   1.411   1_554  A
C433       Br440   1.930   1_554  S
C435        C436   1.405       .  A
C435       Br442   1.931       .  S
C436       Br441   1.931       .  S
C437        C438   1.411   1_554  A
C438       Br439   1.930       .  S
C443        C444   1.413       .  A
C443        C448   1.409       .  A
C443       Br450   1.930       .  S
C444        C730   1.486       .  S
C444        C445   1.414       .  A
C445        C446   1.408       .  A
C445       Br924   1.934       .  S
C446        C447   1.412       .  A
C446       Br451   1.931       .  S
C447        C448   1.413       .  A
C448       Br449   1.933       .  S
Br452       C917   1.934   1_545  S
C453        C454   1.410       .  A
C453        C458   1.406       .  A
C454        C455   1.410   1_455  A
C455        C456   1.408       .  A
C455       Br462   1.930       .  S
C456        C457   1.410       .  A
C456       Br461   1.929       .  S
C457        C717   1.480       .  S
C457        C458   1.418   1_655  A
C458       Br695   1.938       .  S
Br459       C694   1.938   1_545  S
C463        C464   1.411       .  A
C463        C468   1.407       .  A
C463       Br470   1.935       .  S
C465        C466   1.411       .  A
C465       Br472   1.934       .  S
C466       Br471   1.934       .  S
C467        C468   1.414   1_554  A
C468       Br469   1.935       .  S
O473        C476   1.271       .  A
O473       Cd478   2.512       .  S
C474        O483   1.266       .  A
C474        O479   1.271       .  A
C474        C620   1.463       .  S
O475        C481   1.265       .  A
O475       Cd714   2.466       .  S
C476        O484   1.261       .  A
C476        C541   1.469       .  S
C477        O482   1.266       .  A
C477        O716   1.267       .  A
C477        C703   1.487       .  S
Cd478       O711   2.466   1_554  S
Cd478       O721   2.446   1_554  S
Cd478       O484   2.425       .  S
Cd478       O719   2.426   1_554  S
Cd478       O715   2.473       .  S
Cd478       O718   2.439   1_554  S
Cd478       O480   2.469       .  S
O479       Cd714   2.473       .  S
O480        C713   1.267       .  A
C481        O485   1.260       .  A
O482       Cd714   2.439       .  S
O483       Cd714   2.426       .  S
O485       Cd714   2.446       .  S
O486        C489   1.268       .  A
O486       Cd491   2.468       .  S
C487        O496   1.263       .  A
C487        O492   1.270       .  A
C487        C507   1.465       .  S
O488        C494   1.270       .  A
O488       Cd491   2.503       .  S
C489        O497   1.265       .  A
C489        C554   1.461       .  S
C490        O495   1.268       .  A
C490        O493   1.267       .  A
C490        C700   1.484       .  S
Cd491       O498   2.400       .  S
Cd491       O497   2.434       .  S
Cd491       O732   2.426       .  S
Cd491       O728   2.485       .  S
Cd491       O495   2.443       .  S
Cd491       O493   2.460       .  S
O492       Cd727   2.485   1_554  S
C494        O498   1.262       .  A
O496       Cd727   2.426   1_554  S
O499       Cd504   2.444       .  S
C500        O509   1.262       .  A
C500        O505   1.262       .  A
C500        C528   1.469       .  S
O501       Cd504   2.463       .  S
C502        O510   1.265       .  A
C502        C580   1.461       .  S
C503        O508   1.266       .  A
C503        O506   1.266       .  A
C503        C606   1.462       .  S
Cd504       O509   2.510       .  S
Cd504       O505   2.472       .  S
Cd504       O508   2.448       .  S
Cd504       O506   2.462       .  S
C507        O511   1.261       .  A
O512        C515   1.270       .  A
O512       Cd517   2.506       .  S
C513        O522   1.264       .  A
C513        O518   1.268       .  A
C513        C617   1.463       .  S
O514        C520   1.268       .  A
O514       Cd753   2.470       .  S
C515        O523   1.262       .  A
C515        C546   1.473       .  S
C516        O521   1.264       .  A
C516        O755   1.268       .  A
C516        C670   1.475       .  S
Cd517       O750   2.470   1_554  S
Cd517       O760   2.418   1_554  S
Cd517       O523   2.448       .  S
Cd517       O758   2.435   1_554  S
Cd517       O754   2.477       .  S
Cd517       O757   2.435   1_554  S
Cd517       O519   2.492       .  S
O518       Cd753   2.477       .  S
O519        C752   1.268       .  A
C520        O524   1.263       .  A
C520        C690   1.474       .  S
O521       Cd753   2.435       .  S
O522       Cd753   2.435       .  S
O524       Cd753   2.418       .  S
O525        C528   1.270       .  A
O525       Cd766   2.497   1_554  S
C526        O535   1.264       .  A
C526        O531   1.268       .  A
C526        C555   1.462       .  S
O527        C533   1.266       .  A
O527       Cd530   2.445       .  S
C528        O536   1.263       .  A
C529        O534   1.269       .  A
C529        O532   1.263       .  A
C529        C683   1.484       .  S
Cd530       O761   2.497       .  S
Cd530       O537   2.479       .  S
Cd530       O772   2.437       .  S
Cd530       O535   2.439       .  S
Cd530       O531   2.470       .  S
Cd530       O534   2.497       .  S
Cd530       O532   2.410       .  S
C533        O537   1.267       .  A
C533        C673   1.476       .  S
O536       Cd766   2.437   1_554  S
O538       Cd543   2.468       .  S
C539        O548   1.266       .  A
C539        O544   1.267       .  A
C539        C591   1.463       .  S
O540        C546   1.263       .  A
O540       Cd543   2.489   1_455  S
C541        O549   1.261       .  A
C542        O545   1.265       .  A
C542        C565   1.461       .  S
Cd543       O550   2.516   1_655  S
Cd543       O548   2.468       .  S
Cd543       O544   2.447       .  S
Cd543       O547   2.441   1_655  S
C546        O550   1.261       .  A
O551        C554   1.266       .  A
O551       Cd556   2.448       .  S
C552        O561   1.261       .  A
C552        O557   1.262       .  A
C552        C604   1.468       .  S
O553        C559   1.264       .  A
O553       Cd556   2.484       .  S
C554        O562   1.266       .  A
C555        O560   1.266       .  A
C555        O558   1.266       .  A
Cd556       O563   2.491       .  S
Cd556       O562   2.458       .  S
Cd556       O561   2.517       .  S
Cd556       O557   2.462       .  S
Cd556       O560   2.448       .  S
Cd556       O558   2.459       .  S
C559        O563   1.260       .  A
C559        C578   1.468       .  S
O564        C567   1.267       .  A
O564       Cd569   2.490       .  S
C565        O574   1.265       .  A
C565        O570   1.268       .  A
O566        C572   1.265       .  A
O566       Cd569   2.461       .  S
C567        O575   1.262       .  A
C567        C619   1.471       .  S
C568        O573   1.263       .  A
C568        O571   1.268       .  A
C568        C663   1.483       .  S
Cd569       O576   2.427       .  S
Cd569       O575   2.466       .  S
Cd569       O574   2.429       .  S
Cd569       O570   2.469       .  S
Cd569       O573   2.414       .  S
Cd569       O571   2.490       .  S
C572        O576   1.263       .  A
C572        C650   1.470       .  S
O577        C580   1.267       .  A
O577       Cd582   2.463       .  S
C578        O587   1.261       .  A
C578        O583   1.268       .  A
O579        C585   1.267       .  A
O579       Cd582   2.473       .  S
C580        O588   1.265       .  A
C581        O586   1.265       .  A
C581        O584   1.267       .  A
C581        C660   1.485       .  S
Cd582       O589   2.425       .  S
Cd582       O588   2.434       .  S
Cd582       O587   2.448       .  S
Cd582       O583   2.491       .  S
Cd582       O586   2.424       .  S
Cd582       O584   2.480       .  S
C585        O589   1.263       .  A
C585        C640   1.473       .  S
O590        C593   1.272       .  A
O590       Cd595   2.524       .  S
C591        O600   1.266       .  A
C591        O596   1.271       .  A
O592        C598   1.268       .  A
O592       Cd595   2.465       .  S
C593        O601   1.261       .  A
C593        C624   1.472       .  S
C594        O599   1.267       .  A
C594        O597   1.268       .  A
C594        C630   1.478       .  S
Cd595       O602   2.426       .  S
Cd595       O601   2.421       .  S
Cd595       O600   2.423       .  S
Cd595       O596   2.475       .  S
Cd595       O599   2.441       .  S
Cd595       O597   2.466       .  S
C598        O602   1.260       .  A
C598        C653   1.475       .  S
O603        C606   1.271       .  A
O603       Cd608   2.463       .  S
C604        O613   1.261       .  A
C604        O609   1.271       .  A
O605        C611   1.268       .  A
O605       Cd608   2.474       .  S
C606        O614   1.267       .  A
C607        O612   1.268       .  A
C607        O610   1.267       .  A
C607        C633   1.477       .  S
Cd608       O615   2.433       .  S
Cd608       O614   2.427       .  S
Cd608       O613   2.417       .  S
Cd608       O609   2.510       .  S
Cd608       O612   2.452       .  S
Cd608       O610   2.457       .  S
C611        O615   1.260       .  A
C611        C643   1.478       .  S
O616        C619   1.264       .  A
O616       Cd621   2.499   1_455  S
C617        O626   1.266       .  A
C617        O622   1.266       .  A
O618        C624   1.262       .  A
O618       Cd621   2.467       .  S
C619        O627   1.261       .  A
C620        O625   1.266       .  A
C620        O623   1.265       .  A
Cd621       O628   2.531       .  S
Cd621       O627   2.493   1_655  S
Cd621       O626   2.467   1_655  S
Cd621       O622   2.444   1_655  S
Cd621       O625   2.452       .  S
Cd621       O623   2.467       .  S
C624        O628   1.262       .  A
C629        C630   1.412       .  A
C629        C634   1.410       .  A
C629       Br636   1.932       .  S
C630        C631   1.410       .  A
C631        C632   1.406       .  A
C631       Br638   1.932       .  S
C632        C633   1.410       .  A
C632       Br637   1.932       .  S
C633        C634   1.412       .  A
C634       Br635   1.932       .  S
C639        C640   1.410       .  A
C639        C644   1.405       .  A
C639       Br646   1.937       .  S
C640        C641   1.409       .  A
C641        C642   1.408       .  A
C641       Br648   1.928       .  S
C642        C643   1.409       .  A
C642       Br647   1.927       .  S
C643        C644   1.418       .  A
C644       Br645   1.939       .  S
C649        C650   1.410       .  A
C649        C654   1.403       .  A
C649       Br656   1.938       .  S
C650        C651   1.408       .  A
C651        C652   1.407   1_455  A
C651       Br658   1.928   1_455  S
C652        C653   1.409       .  A
C652       Br657   1.927       .  S
C653        C654   1.417   1_655  A
C654       Br655   1.940       .  S
C659        C660   1.413       .  A
C659        C664   1.404       .  A
C659       Br666   1.936       .  S
C660        C661   1.416       .  A
C661        C662   1.412       .  A
C661       Br668   1.932       .  S
C662        C663   1.413       .  A
C662       Br667   1.931       .  S
C663        C664   1.413       .  A
C664       Br665   1.937       .  S
C669        C670   1.410       .  A
C669        C674   1.411       .  A
C669       Br676   1.930       .  S
C670        C907   1.409       .  A
C671        C906   1.409       .  A
C671        C672   1.405       .  A
C671       Br678   1.931       .  S
C672        C909   1.409       .  A
C672       Br677   1.931       .  S
C673        C908   1.409       .  A
C673        C674   1.411       .  A
C674       Br675   1.930       .  S
C679        C680   1.413       .  A
C679        C684   1.409       .  A
C679       Br686   1.930       .  S
C680        C681   1.414       .  A
C681        C682   1.408       .  A
C682        C683   1.412       .  A
C682       Br687   1.931       .  S
C683        C684   1.413       .  A
C684       Br685   1.933       .  S
C689        C690   1.410       .  A
C689        C694   1.406       .  A
C689       Br932   1.938       .  S
C690        C691   1.410   1_455  A
C691        C692   1.408       .  A
C691       Br698   1.930       .  S
C692        C693   1.410       .  A
C692       Br697   1.929       .  S
C693        C694   1.418   1_655  A
Br696       C925   1.938       .  S
C699        C700   1.411       .  A
C699        C704   1.407       .  A
C699       Br706   1.935       .  S
C700        C937   1.414       .  A
C701        C936   1.414   1_554  A
C701        C702   1.411       .  A
C701       Br708   1.934       .  S
C702        C939   1.416       .  A
C702       Br707   1.934       .  S
C703        C938   1.416       .  A
C703        C704   1.414       .  A
C704       Br705   1.935       .  S
O709        C712   1.271       .  A
O709       Cd714   2.512       .  S
C710        O719   1.266       .  A
C710        O715   1.271   1_556  A
C710        C856   1.463       .  S
O711        C717   1.265       .  A
C712        O720   1.261       .  A
C712        C777   1.469       .  S
C713        O718   1.266   1_554  A
C713        C939   1.487       .  S
Cd714       O720   2.425       .  S
Cd714       O716   2.469       .  S
C717        O721   1.260       .  A
O722        C725   1.268       .  A
O722       Cd727   2.468       .  S
C723        O732   1.263       .  A
C723        O728   1.270       .  A
C723        C743   1.465       .  S
O724        C730   1.270       .  A
O724       Cd727   2.503       .  S
C725        O733   1.265       .  A
C725        C790   1.461       .  S
C726        O731   1.268       .  A
C726        O729   1.267   1_556  A
C726        C936   1.484       .  S
Cd727       O734   2.400       .  S
Cd727       O733   2.434       .  S
Cd727       O731   2.443       .  S
Cd727       O729   2.460   1_556  S
C730        O734   1.262       .  A
O735       Cd740   2.444       .  S
C736        O745   1.262       .  A
C736        O741   1.262       .  A
C736        C764   1.469       .  S
O737       Cd740   2.463       .  S
C738        O746   1.265       .  A
C738        C816   1.461       .  S
C739        O744   1.266       .  A
C739        O742   1.266       .  A
C739        C842   1.462       .  S
Cd740       O745   2.510       .  S
Cd740       O741   2.472       .  S
Cd740       O744   2.448       .  S
Cd740       O742   2.462       .  S
C743        O747   1.261       .  A
O748        C751   1.270       .  A
O748       Cd753   2.506       .  S
C749        O758   1.264       .  A
C749        O754   1.268   1_556  A
C749        C853   1.463       .  S
O750        C756   1.268       .  A
C751        O759   1.262       .  A
C751        C782   1.473       .  S
C752        O757   1.264   1_554  A
C752        C906   1.475       .  S
Cd753       O759   2.448       .  S
Cd753       O755   2.492       .  S
C756        O760   1.263       .  A
C756        C926   1.474       .  S
O761        C764   1.270       .  A
C762        O771   1.264       .  A
C762        O767   1.268       .  A
C762        C791   1.462       .  S
O763        C769   1.266   1_556  A
O763       Cd766   2.445       .  S
C764        O772   1.263       .  A
C765        O770   1.269       .  A
C765        O768   1.263       .  A
C765        C919   1.484       .  S
Cd766       O773   2.479   1_556  S
Cd766       O771   2.439       .  S
Cd766       O767   2.470       .  S
Cd766       O770   2.497       .  S
Cd766       O768   2.410       .  S
C769        O773   1.267       .  A
C769        C909   1.476       .  S
O774       Cd779   2.468       .  S
C775        O784   1.266       .  A
C775        O780   1.267       .  A
C775        C827   1.463       .  S
O776        C782   1.263       .  A
O776       Cd779   2.489   1_455  S
C777        O785   1.261       .  A
C778        O781   1.265       .  A
C778        C801   1.461       .  S
Cd779       O786   2.516   1_655  S
Cd779       O784   2.468       .  S
Cd779       O780   2.447       .  S
Cd779       O783   2.441   1_655  S
C782        O786   1.261       .  A
O787        C790   1.266       .  A
O787       Cd792   2.448       .  S
C788        O797   1.261       .  A
C788        O793   1.262       .  A
C788        C840   1.468       .  S
O789        C795   1.264       .  A
O789       Cd792   2.484       .  S
C790        O798   1.266       .  A
C791        O796   1.266       .  A
C791        O794   1.266       .  A
Cd792       O799   2.491       .  S
Cd792       O798   2.458       .  S
Cd792       O797   2.517       .  S
Cd792       O793   2.462       .  S
Cd792       O796   2.448       .  S
Cd792       O794   2.459       .  S
C795        O799   1.260       .  A
C795        C814   1.468       .  S
O800        C803   1.267       .  A
O800       Cd805   2.490       .  S
C801        O810   1.265       .  A
C801        O806   1.268       .  A
O802        C808   1.265       .  A
O802       Cd805   2.461       .  S
C803        O811   1.262       .  A
C803        C855   1.471       .  S
C804        O809   1.263       .  A
C804        O807   1.268       .  A
C804        C899   1.483       .  S
Cd805       O812   2.427       .  S
Cd805       O811   2.466       .  S
Cd805       O810   2.429       .  S
Cd805       O806   2.469       .  S
Cd805       O809   2.414       .  S
Cd805       O807   2.490       .  S
C808        O812   1.263       .  A
C808        C886   1.470       .  S
O813        C816   1.267       .  A
O813       Cd818   2.463       .  S
C814        O823   1.261       .  A
C814        O819   1.268       .  A
O815        C821   1.267       .  A
O815       Cd818   2.473       .  S
C816        O824   1.265       .  A
C817        O822   1.265       .  A
C817        O820   1.267       .  A
C817        C896   1.485       .  S
Cd818       O825   2.425       .  S
Cd818       O824   2.434       .  S
Cd818       O823   2.448       .  S
Cd818       O819   2.491       .  S
Cd818       O822   2.424       .  S
Cd818       O820   2.480       .  S
C821        O825   1.263       .  A
C821        C876   1.473       .  S
O826        C829   1.272       .  A
O826       Cd831   2.524       .  S
C827        O836   1.266       .  A
C827        O832   1.271       .  A
O828        C834   1.268       .  A
O828       Cd831   2.465       .  S
C829        O837   1.261       .  A
C829        C860   1.472       .  S
C830        O835   1.267       .  A
C830        O833   1.268       .  A
C830        C866   1.478       .  S
Cd831       O838   2.426       .  S
Cd831       O837   2.421       .  S
Cd831       O836   2.423       .  S
Cd831       O832   2.475       .  S
Cd831       O835   2.441       .  S
Cd831       O833   2.466       .  S
C834        O838   1.260       .  A
C834        C889   1.475       .  S
O839        C842   1.271       .  A
O839       Cd844   2.463       .  S
C840        O849   1.261       .  A
C840        O845   1.271       .  A
O841        C847   1.268       .  A
O841       Cd844   2.474       .  S
C842        O850   1.267       .  A
C843        O848   1.268       .  A
C843        O846   1.267       .  A
C843        C869   1.477       .  S
Cd844       O851   2.433       .  S
Cd844       O850   2.427       .  S
Cd844       O849   2.417       .  S
Cd844       O845   2.510       .  S
Cd844       O848   2.452       .  S
Cd844       O846   2.457       .  S
C847        O851   1.260       .  A
C847        C879   1.478       .  S
O852        C855   1.264       .  A
O852       Cd857   2.499   1_455  S
C853        O862   1.266       .  A
C853        O858   1.266       .  A
O854        C860   1.262       .  A
O854       Cd857   2.467       .  S
C855        O863   1.261       .  A
C856        O861   1.266       .  A
C856        O859   1.265       .  A
Cd857       O864   2.531       .  S
Cd857       O863   2.493   1_655  S
Cd857       O862   2.467   1_655  S
Cd857       O858   2.444   1_655  S
Cd857       O861   2.452       .  S
Cd857       O859   2.467       .  S
C860        O864   1.262       .  A
C865        C866   1.412       .  A
C865        C870   1.410       .  A
C865       Br872   1.932       .  S
C866        C867   1.410       .  A
C867        C868   1.406       .  A
C867       Br874   1.932       .  S
C868        C869   1.410       .  A
C868       Br873   1.932       .  S
C869        C870   1.412       .  A
C870       Br871   1.932       .  S
C875        C876   1.410       .  A
C875        C880   1.405       .  A
C875       Br882   1.937       .  S
C876        C877   1.409       .  A
C877        C878   1.408       .  A
C877       Br884   1.928       .  S
C878        C879   1.409       .  A
C878       Br883   1.927       .  S
C879        C880   1.418       .  A
C880       Br881   1.939       .  S
C885        C886   1.410       .  A
C885        C890   1.403       .  A
C885       Br892   1.938       .  S
C886        C887   1.408       .  A
C887        C888   1.407   1_455  A
C887       Br894   1.928   1_455  S
C888        C889   1.409       .  A
C888       Br893   1.927       .  S
C889        C890   1.417   1_655  A
C890       Br891   1.940       .  S
C895        C896   1.413       .  A
C895        C900   1.404       .  A
C895       Br902   1.936       .  S
C896        C897   1.416       .  A
C897        C898   1.412       .  A
C897       Br904   1.932       .  S
C898        C899   1.413       .  A
C898       Br903   1.931       .  S
C899        C900   1.413       .  A
C900       Br901   1.937       .  S
C905        C906   1.410       .  A
C905        C910   1.411   1_554  A
C905       Br912   1.930   1_554  S
C907        C908   1.405       .  A
C907       Br914   1.931       .  S
C908       Br913   1.931       .  S
C909        C910   1.411   1_554  A
C910       Br911   1.930       .  S
C915        C916   1.413       .  A
C915        C920   1.409       .  A
C915       Br922   1.930       .  S
C916        C917   1.414       .  A
C917        C918   1.408       .  A
C918        C919   1.412       .  A
C918       Br923   1.931       .  S
C919        C920   1.413       .  A
C920       Br921   1.933       .  S
C925        C926   1.410       .  A
C925        C930   1.406       .  A
C926        C927   1.410   1_455  A
C927        C928   1.408       .  A
C927       Br934   1.930       .  S
C928        C929   1.410       .  A
C928       Br933   1.929       .  S
C929        C930   1.418   1_655  A
C935        C936   1.411       .  A
C935        C940   1.407       .  A
C935       Br942   1.935       .  S
C937        C938   1.411       .  A
C937       Br944   1.934       .  S
C938       Br943   1.934       .  S
C939        C940   1.414   1_554  A
C940       Br941   1.935       .  S
